Nc1cc(-c2cc(N)c(-c3c(N)c(N)nc(N)c3N)c(N)c2N)c(N)c(N)n1 Nc1cc([*:2])c(N)c(N)c1[*:1] Nc1cc([*:2])c(N)c(N)n1.Nc1nc(N)c(N)c([*:1])c1N 5.679505025968371 3.0822367942270614
     RDKit          3D

 28 30  0  0  0  0  0  0  0  0999 V2000
    5.5212   -2.7354   -1.6419 N   0  0  0  0  0  0  0  0  0  0  0  0
    4.9526   -1.6365   -0.9294 C   0  0  0  0  0  0  0  0  0  0  0  0
    3.5685   -1.4706   -0.8711 C   0  0  0  0  0  0  0  0  0  0  0  0
    3.0276   -0.3960   -0.1558 C   0  0  0  0  0  0  0  0  0  0  0  0
    1.5555   -0.2670   -0.0814 C   0  0  0  0  0  0  0  0  0  0  0  0
    0.8692    0.1571   -1.2227 C   0  0  0  0  0  0  0  0  0  0  0  0
   -0.5147    0.3416   -1.2037 C   0  0  0  0  0  0  0  0  0  0  0  0
   -1.1716    0.7910   -2.3981 N   0  0  0  0  0  0  0  0  0  0  0  0
   -1.2375    0.0779   -0.0205 C   0  0  0  0  0  0  0  0  0  0  0  0
   -2.7110    0.2522   -0.0028 C   0  0  0  0  0  0  0  0  0  0  0  0
   -3.2680    1.5145    0.3080 C   0  0  0  0  0  0  0  0  0  0  0  0
   -2.4142    2.6441    0.5615 N   0  0  0  0  0  0  0  0  0  0  0  0
   -4.6725    1.6442    0.3422 C   0  0  0  0  0  0  0  0  0  0  0  0
   -5.3142    2.8660    0.7235 N   0  0  0  0  0  0  0  0  0  0  0  0
   -5.4523    0.5784    0.0300 N   0  0  0  0  0  0  0  0  0  0  0  0
   -4.9519   -0.6398   -0.2975 C   0  0  0  0  0  0  0  0  0  0  0  0
   -5.8713   -1.6757   -0.6601 N   0  0  0  0  0  0  0  0  0  0  0  0
   -3.5558   -0.8434   -0.2966 C   0  0  0  0  0  0  0  0  0  0  0  0
   -2.9974   -2.1414   -0.5659 N   0  0  0  0  0  0  0  0  0  0  0  0
   -0.5608   -0.3791    1.1372 C   0  0  0  0  0  0  0  0  0  0  0  0
   -1.3093   -0.7167    2.3185 N   0  0  0  0  0  0  0  0  0  0  0  0
    0.8468   -0.5370    1.1107 C   0  0  0  0  0  0  0  0  0  0  0  0
    1.5602   -0.9460    2.2901 N   0  0  0  0  0  0  0  0  0  0  0  0
    3.8886    0.5232    0.4880 C   0  0  0  0  0  0  0  0  0  0  0  0
    3.3455    1.6232    1.2372 N   0  0  0  0  0  0  0  0  0  0  0  0
    5.2867    0.3250    0.3845 C   0  0  0  0  0  0  0  0  0  0  0  0
    6.2285    1.2381    0.9583 N   0  0  0  0  0  0  0  0  0  0  0  0
    5.7649   -0.7434   -0.3087 N   0  0  0  0  0  0  0  0  0  0  0  0
  1  2  1  0
  2  3  2  0
  3  4  1  0
  4  5  1  0
  5  6  2  0
  6  7  1  0
  7  8  1  0
  7  9  2  0
  9 10  1  0
 10 11  2  0
 11 12  1  0
 11 13  1  0
 13 14  1  0
 13 15  2  0
 15 16  1  0
 16 17  1  0
 16 18  2  0
 18 19  1  0
  9 20  1  0
 20 21  1  0
 20 22  2  0
 22 23  1  0
  4 24  2  0
 24 25  1  0
 24 26  1  0
 26 27  1  0
 26 28  2  0
 28  2  1  0
 22  5  1  0
 18 10  1  0
M  END
>  <_Model>  (1) 
0

>  <_Energy>  (1) 
79.36262251324887

$$$$
Nc1cc(-c2cc(N)c(-c3c(N)c(N)nc(N)c3N)c(N)c2N)c(N)c(N)n1 Nc1cc([*:2])c(N)c(N)c1[*:1] Nc1cc([*:2])c(N)c(N)n1.Nc1nc(N)c(N)c([*:1])c1N 5.679505025968371 3.0822367942270614
     RDKit          3D

 28 30  0  0  0  0  0  0  0  0999 V2000
   -5.7507    2.7008   -0.7817 N   0  0  0  0  0  0  0  0  0  0  0  0
   -5.0826    1.4673   -0.5161 C   0  0  0  0  0  0  0  0  0  0  0  0
   -3.6891    1.4120   -0.4722 C   0  0  0  0  0  0  0  0  0  0  0  0
   -3.0508    0.1974   -0.1959 C   0  0  0  0  0  0  0  0  0  0  0  0
   -1.5733    0.1776   -0.1198 C   0  0  0  0  0  0  0  0  0  0  0  0
   -0.8474    0.2798   -1.3098 C   0  0  0  0  0  0  0  0  0  0  0  0
    0.5477    0.2223   -1.3093 C   0  0  0  0  0  0  0  0  0  0  0  0
    1.2470    0.3187   -2.5590 N   0  0  0  0  0  0  0  0  0  0  0  0
    1.2396    0.0784   -0.0875 C   0  0  0  0  0  0  0  0  0  0  0  0
    2.7230    0.0386   -0.0810 C   0  0  0  0  0  0  0  0  0  0  0  0
    3.4611    1.2324    0.0932 C   0  0  0  0  0  0  0  0  0  0  0  0
    2.7832    2.4819    0.3133 N   0  0  0  0  0  0  0  0  0  0  0  0
    4.8702    1.1659    0.0687 C   0  0  0  0  0  0  0  0  0  0  0  0
    5.6884    2.3373    0.1595 N   0  0  0  0  0  0  0  0  0  0  0  0
    5.4827   -0.0371   -0.0696 N   0  0  0  0  0  0  0  0  0  0  0  0
    4.8063   -1.2048   -0.2131 C   0  0  0  0  0  0  0  0  0  0  0  0
    5.5597   -2.4194   -0.2975 N   0  0  0  0  0  0  0  0  0  0  0  0
    3.3960   -1.1939   -0.2491 C   0  0  0  0  0  0  0  0  0  0  0  0
    2.6521   -2.4044   -0.4738 N   0  0  0  0  0  0  0  0  0  0  0  0
    0.5200    0.0012    1.1304 C   0  0  0  0  0  0  0  0  0  0  0  0
    1.2305   -0.0717    2.3792 N   0  0  0  0  0  0  0  0  0  0  0  0
   -0.8962    0.0349    1.1120 C   0  0  0  0  0  0  0  0  0  0  0  0
   -1.6478   -0.0979    2.3304 N   0  0  0  0  0  0  0  0  0  0  0  0
   -3.8228   -0.9682    0.0197 C   0  0  0  0  0  0  0  0  0  0  0  0
   -3.1799   -2.2188    0.3178 N   0  0  0  0  0  0  0  0  0  0  0  0
   -5.2330   -0.8672   -0.0544 C   0  0  0  0  0  0  0  0  0  0  0  0
   -6.0858   -2.0074    0.0956 N   0  0  0  0  0  0  0  0  0  0  0  0
   -5.8084    0.3388   -0.3102 N   0  0  0  0  0  0  0  0  0  0  0  0
  1  2  1  0
  2  3  2  0
  3  4  1  0
  4  5  1  0
  5  6  2  0
  6  7  1  0
  7  8  1  0
  7  9  2  0
  9 10  1  0
 10 11  2  0
 11 12  1  0
 11 13  1  0
 13 14  1  0
 13 15  2  0
 15 16  1  0
 16 17  1  0
 16 18  2  0
 18 19  1  0
  9 20  1  0
 20 21  1  0
 20 22  2  0
 22 23  1  0
  4 24  2  0
 24 25  1  0
 24 26  1  0
 26 27  1  0
 26 28  2  0
 28  2  1  0
 22  5  1  0
 18 10  1  0
M  END
>  <_Model>  (2) 
1

>  <_Energy>  (2) 
79.36262251676526

$$$$
Nc1cc(-c2cc(N)c(-c3c(N)c(N)nc(N)c3N)c(N)c2N)c(N)c(N)n1 Nc1cc([*:2])c(N)c(N)c1[*:1] Nc1cc([*:2])c(N)c(N)n1.Nc1nc(N)c(N)c([*:1])c1N 5.679505025968371 3.0822367942270614
     RDKit          3D

 28 30  0  0  0  0  0  0  0  0999 V2000
   -5.5992   -2.2439    1.9802 N   0  0  0  0  0  0  0  0  0  0  0  0
   -4.9986   -1.2975    1.0959 C   0  0  0  0  0  0  0  0  0  0  0  0
   -3.6107   -1.2260    0.9720 C   0  0  0  0  0  0  0  0  0  0  0  0
   -3.0382   -0.2823    0.1114 C   0  0  0  0  0  0  0  0  0  0  0  0
   -1.5629   -0.2056    0.0288 C   0  0  0  0  0  0  0  0  0  0  0  0
   -0.8836   -1.2229   -0.6474 C   0  0  0  0  0  0  0  0  0  0  0  0
    0.5039   -1.1850   -0.7989 C   0  0  0  0  0  0  0  0  0  0  0  0
    1.1536   -2.2471   -1.5129 N   0  0  0  0  0  0  0  0  0  0  0  0
    1.2371   -0.1139   -0.2447 C   0  0  0  0  0  0  0  0  0  0  0  0
    2.7141   -0.0815   -0.3850 C   0  0  0  0  0  0  0  0  0  0  0  0
    3.5321   -0.6466    0.6209 C   0  0  0  0  0  0  0  0  0  0  0  0
    2.9435   -1.2113    1.8058 N   0  0  0  0  0  0  0  0  0  0  0  0
    4.9319   -0.6235    0.4464 C   0  0  0  0  0  0  0  0  0  0  0  0
    5.8248   -1.2423    1.3791 N   0  0  0  0  0  0  0  0  0  0  0  0
    5.4617   -0.0207   -0.6479 N   0  0  0  0  0  0  0  0  0  0  0  0
    4.7082    0.5539   -1.6193 C   0  0  0  0  0  0  0  0  0  0  0  0
    5.3801    1.2074   -2.7017 N   0  0  0  0  0  0  0  0  0  0  0  0
    3.3011    0.5150   -1.5251 C   0  0  0  0  0  0  0  0  0  0  0  0
    2.4742    1.0493   -2.5739 N   0  0  0  0  0  0  0  0  0  0  0  0
    0.5670    0.9111    0.4676 C   0  0  0  0  0  0  0  0  0  0  0  0
    1.3245    1.9620    1.0934 N   0  0  0  0  0  0  0  0  0  0  0  0
   -0.8437    0.8728    0.5909 C   0  0  0  0  0  0  0  0  0  0  0  0
   -1.5493    1.9312    1.2612 N   0  0  0  0  0  0  0  0  0  0  0  0
   -3.8713    0.5801   -0.6390 C   0  0  0  0  0  0  0  0  0  0  0  0
   -3.2956    1.5628   -1.5159 N   0  0  0  0  0  0  0  0  0  0  0  0
   -5.2744    0.4572   -0.4949 C   0  0  0  0  0  0  0  0  0  0  0  0
   -6.1894    1.2515   -1.2576 N   0  0  0  0  0  0  0  0  0  0  0  0
   -5.7839   -0.4648    0.3661 N   0  0  0  0  0  0  0  0  0  0  0  0
  1  2  1  0
  2  3  2  0
  3  4  1  0
  4  5  1  0
  5  6  2  0
  6  7  1  0
  7  8  1  0
  7  9  2  0
  9 10  1  0
 10 11  2  0
 11 12  1  0
 11 13  1  0
 13 14  1  0
 13 15  2  0
 15 16  1  0
 16 17  1  0
 16 18  2  0
 18 19  1  0
  9 20  1  0
 20 21  1  0
 20 22  2  0
 22 23  1  0
  4 24  2  0
 24 25  1  0
 24 26  1  0
 26 27  1  0
 26 28  2  0
 28  2  1  0
 22  5  1  0
 18 10  1  0
M  END
>  <_Model>  (3) 
2

>  <_Energy>  (3) 
79.3626226841643

$$$$
Nc1cc(-c2cc(N)c(-c3c(N)c(N)nc(N)c3N)c(N)c2N)c(N)c(N)n1 Nc1cc([*:2])c(N)c(N)c1[*:1] Nc1cc([*:2])c(N)c(N)n1.Nc1nc(N)c(N)c([*:1])c1N 5.679505025968371 3.0822367942270614
     RDKit          3D

 28 30  0  0  0  0  0  0  0  0999 V2000
    5.7580    0.9591   -2.5089 N   0  0  0  0  0  0  0  0  0  0  0  0
    5.0890    0.4474   -1.3561 C   0  0  0  0  0  0  0  0  0  0  0  0
    3.6978    0.4989   -1.2638 C   0  0  0  0  0  0  0  0  0  0  0  0
    3.0572   -0.0140   -0.1292 C   0  0  0  0  0  0  0  0  0  0  0  0
    1.5782    0.0079   -0.0805 C   0  0  0  0  0  0  0  0  0  0  0  0
    0.8906   -1.1990   -0.2407 C   0  0  0  0  0  0  0  0  0  0  0  0
   -0.5051   -1.2368   -0.2530 C   0  0  0  0  0  0  0  0  0  0  0  0
   -1.1639   -2.5003   -0.4239 N   0  0  0  0  0  0  0  0  0  0  0  0
   -1.2366   -0.0409   -0.0901 C   0  0  0  0  0  0  0  0  0  0  0  0
   -2.7199   -0.0810   -0.0728 C   0  0  0  0  0  0  0  0  0  0  0  0
   -3.4086   -0.2100    1.1557 C   0  0  0  0  0  0  0  0  0  0  0  0
   -2.6821   -0.2544    2.3964 N   0  0  0  0  0  0  0  0  0  0  0  0
   -4.8181   -0.2715    1.1377 C   0  0  0  0  0  0  0  0  0  0  0  0
   -5.5854   -0.4795    2.3284 N   0  0  0  0  0  0  0  0  0  0  0  0
   -5.4795   -0.1558   -0.0416 N   0  0  0  0  0  0  0  0  0  0  0  0
   -4.8521   -0.0052   -1.2355 C   0  0  0  0  0  0  0  0  0  0  0  0
   -5.6564    0.1602   -2.4084 N   0  0  0  0  0  0  0  0  0  0  0  0
   -3.4422    0.0098   -1.2853 C   0  0  0  0  0  0  0  0  0  0  0  0
   -2.7472    0.0934   -2.5419 N   0  0  0  0  0  0  0  0  0  0  0  0
   -0.5556    1.1886    0.0873 C   0  0  0  0  0  0  0  0  0  0  0  0
   -1.3038    2.3950    0.3214 N   0  0  0  0  0  0  0  0  0  0  0  0
    0.8608    1.2150    0.0724 C   0  0  0  0  0  0  0  0  0  0  0  0
    1.5711    2.4588    0.1961 N   0  0  0  0  0  0  0  0  0  0  0  0
    3.8257   -0.5815    0.9135 C   0  0  0  0  0  0  0  0  0  0  0  0
    3.1796   -1.1351    2.0720 N   0  0  0  0  0  0  0  0  0  0  0  0
    5.2355   -0.5942    0.7837 C   0  0  0  0  0  0  0  0  0  0  0  0
    6.0895   -1.0918    1.8195 N   0  0  0  0  0  0  0  0  0  0  0  0
    5.8121   -0.0894   -0.3404 N   0  0  0  0  0  0  0  0  0  0  0  0
  1  2  1  0
  2  3  2  0
  3  4  1  0
  4  5  1  0
  5  6  2  0
  6  7  1  0
  7  8  1  0
  7  9  2  0
  9 10  1  0
 10 11  2  0
 11 12  1  0
 11 13  1  0
 13 14  1  0
 13 15  2  0
 15 16  1  0
 16 17  1  0
 16 18  2  0
 18 19  1  0
  9 20  1  0
 20 21  1  0
 20 22  2  0
 22 23  1  0
  4 24  2  0
 24 25  1  0
 24 26  1  0
 26 27  1  0
 26 28  2  0
 28  2  1  0
 22  5  1  0
 18 10  1  0
M  END
>  <_Model>  (4) 
7

>  <_Energy>  (4) 
79.40557472981382

$$$$
Clc1cc(-c2ccnc(Cl)c2Cl)cc(Cl)c1-c1c(Cl)cnc(Cl)c1Cl Clc1cc([*:2])cc(Cl)c1[*:1] Clc1cnc(Cl)c(Cl)c1[*:1].Clc1nccc([*:2])c1Cl 5.724837569748158 3.0945629048283485
     RDKit          3D

 25 27  0  0  0  0  0  0  0  0999 V2000
   -1.4434    1.7612   -2.1770 Cl  0  0  0  0  0  0  0  0  0  0  0  0
   -0.6534    0.7576   -0.9651 C   0  0  0  0  0  0  0  0  0  0  0  0
    0.7433    0.7627   -0.8978 C   0  0  0  0  0  0  0  0  0  0  0  0
    1.4141   -0.0168    0.0559 C   0  0  0  0  0  0  0  0  0  0  0  0
    2.8929   -0.0207    0.1166 C   0  0  0  0  0  0  0  0  0  0  0  0
    3.5771   -1.2355   -0.0363 C   0  0  0  0  0  0  0  0  0  0  0  0
    4.9704   -1.2545    0.0025 C   0  0  0  0  0  0  0  0  0  0  0  0
    5.6620   -0.1025    0.1943 N   0  0  0  0  0  0  0  0  0  0  0  0
    5.0366    1.0931    0.3574 C   0  0  0  0  0  0  0  0  0  0  0  0
    6.0205    2.5257    0.6145 Cl  0  0  0  0  0  0  0  0  0  0  0  0
    3.6323    1.1638    0.3265 C   0  0  0  0  0  0  0  0  0  0  0  0
    2.8231    2.7073    0.6122 Cl  0  0  0  0  0  0  0  0  0  0  0  0
    0.6717   -0.8231    0.9306 C   0  0  0  0  0  0  0  0  0  0  0  0
   -0.7255   -0.8363    0.8723 C   0  0  0  0  0  0  0  0  0  0  0  0
   -1.6077   -1.8575    2.0032 Cl  0  0  0  0  0  0  0  0  0  0  0  0
   -1.3987   -0.0420   -0.0766 C   0  0  0  0  0  0  0  0  0  0  0  0
   -2.8766   -0.0492   -0.1409 C   0  0  0  0  0  0  0  0  0  0  0  0
   -3.5445   -0.9776   -0.9600 C   0  0  0  0  0  0  0  0  0  0  0  0
   -2.6659   -2.1543   -1.9309 Cl  0  0  0  0  0  0  0  0  0  0  0  0
   -4.9398   -0.9673   -1.0063 C   0  0  0  0  0  0  0  0  0  0  0  0
   -5.6419   -0.0700   -0.2680 N   0  0  0  0  0  0  0  0  0  0  0  0
   -5.0291    0.8401    0.5332 C   0  0  0  0  0  0  0  0  0  0  0  0
   -6.0255    1.9594    1.4494 Cl  0  0  0  0  0  0  0  0  0  0  0  0
   -3.6272    0.8720    0.6158 C   0  0  0  0  0  0  0  0  0  0  0  0
   -2.8227    2.0512    1.6547 Cl  0  0  0  0  0  0  0  0  0  0  0  0
  1  2  1  0
  2  3  2  0
  3  4  1  0
  4  5  1  0
  5  6  2  0
  6  7  1  0
  7  8  2  0
  8  9  1  0
  9 10  1  0
  9 11  2  0
 11 12  1  0
  4 13  2  0
 13 14  1  0
 14 15  1  0
 14 16  2  0
 16 17  1  0
 17 18  2  0
 18 19  1  0
 18 20  1  0
 20 21  2  0
 21 22  1  0
 22 23  1  0
 22 24  2  0
 24 25  1  0
 16  2  1  0
 24 17  1  0
 11  5  1  0
M  END
>  <_Model>  (5) 
0

>  <_Energy>  (5) 
54.1657923669993

$$$$
Clc1cc(-c2ccnc(Cl)c2Cl)cc(Cl)c1-c1c(Cl)cnc(Cl)c1Cl Clc1cc([*:2])cc(Cl)c1[*:1] Clc1cnc(Cl)c(Cl)c1[*:1].Clc1nccc([*:2])c1Cl 5.724837569748158 3.0945629048283485
     RDKit          3D

 25 27  0  0  0  0  0  0  0  0999 V2000
   -1.6899    0.7904    2.3244 Cl  0  0  0  0  0  0  0  0  0  0  0  0
   -0.7628    0.3303    0.9000 C   0  0  0  0  0  0  0  0  0  0  0  0
    0.6310    0.2740    0.9971 C   0  0  0  0  0  0  0  0  0  0  0  0
    1.4093   -0.0820   -0.1140 C   0  0  0  0  0  0  0  0  0  0  0  0
    2.8836   -0.1545   -0.0056 C   0  0  0  0  0  0  0  0  0  0  0  0
    3.5291   -1.3645   -0.2999 C   0  0  0  0  0  0  0  0  0  0  0  0
    4.9156   -1.4542   -0.1877 C   0  0  0  0  0  0  0  0  0  0  0  0
    5.6389   -0.3725    0.1985 N   0  0  0  0  0  0  0  0  0  0  0  0
    5.0530    0.8204    0.4822 C   0  0  0  0  0  0  0  0  0  0  0  0
    6.0776    2.1653    0.9595 Cl  0  0  0  0  0  0  0  0  0  0  0  0
    3.6571    0.9611    0.3832 C   0  0  0  0  0  0  0  0  0  0  0  0
    2.9083    2.5326    0.6814 Cl  0  0  0  0  0  0  0  0  0  0  0  0
    0.7758   -0.4052   -1.3226 C   0  0  0  0  0  0  0  0  0  0  0  0
   -0.6174   -0.3525   -1.4312 C   0  0  0  0  0  0  0  0  0  0  0  0
   -1.3593   -0.7559   -2.9762 Cl  0  0  0  0  0  0  0  0  0  0  0  0
   -1.3974    0.0191   -0.3185 C   0  0  0  0  0  0  0  0  0  0  0  0
   -2.8714    0.0799   -0.4281 C   0  0  0  0  0  0  0  0  0  0  0  0
   -3.6488   -1.0597   -0.1528 C   0  0  0  0  0  0  0  0  0  0  0  0
   -2.9147   -2.5860    0.3278 Cl  0  0  0  0  0  0  0  0  0  0  0  0
   -5.0384   -0.9808   -0.2622 C   0  0  0  0  0  0  0  0  0  0  0  0
   -5.6303    0.1841   -0.6304 N   0  0  0  0  0  0  0  0  0  0  0  0
   -4.9100    1.3033   -0.9034 C   0  0  0  0  0  0  0  0  0  0  0  0
   -5.7686    2.7622   -1.3718 Cl  0  0  0  0  0  0  0  0  0  0  0  0
   -3.5088    1.2772   -0.8083 C   0  0  0  0  0  0  0  0  0  0  0  0
   -2.5651    2.7269   -1.1617 Cl  0  0  0  0  0  0  0  0  0  0  0  0
  1  2  1  0
  2  3  2  0
  3  4  1  0
  4  5  1  0
  5  6  2  0
  6  7  1  0
  7  8  2  0
  8  9  1  0
  9 10  1  0
  9 11  2  0
 11 12  1  0
  4 13  2  0
 13 14  1  0
 14 15  1  0
 14 16  2  0
 16 17  1  0
 17 18  2  0
 18 19  1  0
 18 20  1  0
 20 21  2  0
 21 22  1  0
 22 23  1  0
 22 24  2  0
 24 25  1  0
 16  2  1  0
 24 17  1  0
 11  5  1  0
M  END
>  <_Model>  (6) 
1

>  <_Energy>  (6) 
54.16579237208535

$$$$
Clc1cc(-c2ccnc(Cl)c2Cl)cc(Cl)c1-c1c(Cl)cnc(Cl)c1Cl Clc1cc([*:2])cc(Cl)c1[*:1] Clc1cnc(Cl)c(Cl)c1[*:1].Clc1nccc([*:2])c1Cl 5.724837569748158 3.0945629048283485
     RDKit          3D

 25 27  0  0  0  0  0  0  0  0999 V2000
   -1.6147   -2.3297   -1.4682 Cl  0  0  0  0  0  0  0  0  0  0  0  0
   -0.7302   -1.0197   -0.6924 C   0  0  0  0  0  0  0  0  0  0  0  0
    0.6660   -1.0144   -0.7719 C   0  0  0  0  0  0  0  0  0  0  0  0
    1.4109    0.0039   -0.1600 C   0  0  0  0  0  0  0  0  0  0  0  0
    2.8875    0.0077   -0.2619 C   0  0  0  0  0  0  0  0  0  0  0  0
    3.4821    0.0044   -1.5322 C   0  0  0  0  0  0  0  0  0  0  0  0
    4.8712    0.0238   -1.6460 C   0  0  0  0  0  0  0  0  0  0  0  0
    5.6455    0.0392   -0.5314 N   0  0  0  0  0  0  0  0  0  0  0  0
    5.1090    0.0321    0.7172 C   0  0  0  0  0  0  0  0  0  0  0  0
    6.1964    0.0382    2.0971 Cl  0  0  0  0  0  0  0  0  0  0  0  0
    3.7126    0.0121    0.8840 C   0  0  0  0  0  0  0  0  0  0  0  0
    3.0220   -0.0713    2.5073 Cl  0  0  0  0  0  0  0  0  0  0  0  0
    0.7418    1.0345    0.5161 C   0  0  0  0  0  0  0  0  0  0  0  0
   -0.6539    1.0393    0.6022 C   0  0  0  0  0  0  0  0  0  0  0  0
   -1.4411    2.3538    1.4696 Cl  0  0  0  0  0  0  0  0  0  0  0  0
   -1.4005    0.0083   -0.0009 C   0  0  0  0  0  0  0  0  0  0  0  0
   -2.8771    0.0064    0.0895 C   0  0  0  0  0  0  0  0  0  0  0  0
   -3.6472    0.6454   -0.8992 C   0  0  0  0  0  0  0  0  0  0  0  0
   -2.9006    1.4642   -2.2673 Cl  0  0  0  0  0  0  0  0  0  0  0  0
   -5.0393    0.6320   -0.7950 C   0  0  0  0  0  0  0  0  0  0  0  0
   -5.6407    0.0083    0.2502 N   0  0  0  0  0  0  0  0  0  0  0  0
   -4.9277   -0.6183    1.2223 C   0  0  0  0  0  0  0  0  0  0  0  0
   -5.7985   -1.3968    2.5341 Cl  0  0  0  0  0  0  0  0  0  0  0  0
   -3.5243   -0.6339    1.1645 C   0  0  0  0  0  0  0  0  0  0  0  0
   -2.5901   -1.4461    2.4232 Cl  0  0  0  0  0  0  0  0  0  0  0  0
  1  2  1  0
  2  3  2  0
  3  4  1  0
  4  5  1  0
  5  6  2  0
  6  7  1  0
  7  8  2  0
  8  9  1  0
  9 10  1  0
  9 11  2  0
 11 12  1  0
  4 13  2  0
 13 14  1  0
 14 15  1  0
 14 16  2  0
 16 17  1  0
 17 18  2  0
 18 19  1  0
 18 20  1  0
 20 21  2  0
 21 22  1  0
 22 23  1  0
 22 24  2  0
 24 25  1  0
 16  2  1  0
 24 17  1  0
 11  5  1  0
M  END
>  <_Model>  (7) 
2

>  <_Energy>  (7) 
54.16579237584338

$$$$
Clc1cc(-c2ccnc(Cl)c2Cl)cc(Cl)c1-c1c(Cl)cnc(Cl)c1Cl Clc1cc([*:2])cc(Cl)c1[*:1] Clc1cnc(Cl)c(Cl)c1[*:1].Clc1nccc([*:2])c1Cl 5.724837569748158 3.0945629048283485
     RDKit          3D

 25 27  0  0  0  0  0  0  0  0999 V2000
    1.7378   -1.6682    1.9095 Cl  0  0  0  0  0  0  0  0  0  0  0  0
    0.7850   -0.7509    0.7472 C   0  0  0  0  0  0  0  0  0  0  0  0
   -0.6062   -0.8927    0.7603 C   0  0  0  0  0  0  0  0  0  0  0  0
   -1.4046   -0.1735   -0.1407 C   0  0  0  0  0  0  0  0  0  0  0  0
   -2.8750   -0.3414   -0.1278 C   0  0  0  0  0  0  0  0  0  0  0  0
   -3.4150   -1.6246   -0.2986 C   0  0  0  0  0  0  0  0  0  0  0  0
   -4.7982   -1.7980   -0.3046 C   0  0  0  0  0  0  0  0  0  0  0  0
   -5.6190   -0.7298   -0.1392 N   0  0  0  0  0  0  0  0  0  0  0  0
   -5.1357    0.5277    0.0398 C   0  0  0  0  0  0  0  0  0  0  0  0
   -6.2802    1.8423    0.2601 Cl  0  0  0  0  0  0  0  0  0  0  0  0
   -3.7476    0.7537    0.0541 C   0  0  0  0  0  0  0  0  0  0  0  0
   -3.1241    2.3775    0.3605 Cl  0  0  0  0  0  0  0  0  0  0  0  0
   -0.7937    0.6758   -1.0749 C   0  0  0  0  0  0  0  0  0  0  0  0
    0.5964    0.8256   -1.0969 C   0  0  0  0  0  0  0  0  0  0  0  0
    1.3092    1.9108   -2.2862 Cl  0  0  0  0  0  0  0  0  0  0  0  0
    1.3965    0.1134   -0.1821 C   0  0  0  0  0  0  0  0  0  0  0  0
    2.8674    0.2701   -0.1987 C   0  0  0  0  0  0  0  0  0  0  0  0
    3.6603   -0.5783   -0.9926 C   0  0  0  0  0  0  0  0  0  0  0  0
    2.9496   -1.8450   -1.9874 Cl  0  0  0  0  0  0  0  0  0  0  0  0
    5.0466   -0.4133   -0.9938 C   0  0  0  0  0  0  0  0  0  0  0  0
    5.6206    0.5561   -0.2363 N   0  0  0  0  0  0  0  0  0  0  0  0
    4.8850    1.3925    0.5416 C   0  0  0  0  0  0  0  0  0  0  0  0
    5.7209    2.6152    1.4857 Cl  0  0  0  0  0  0  0  0  0  0  0  0
    3.4862    1.2687    0.5788 C   0  0  0  0  0  0  0  0  0  0  0  0
    2.5228    2.3512    1.5871 Cl  0  0  0  0  0  0  0  0  0  0  0  0
  1  2  1  0
  2  3  2  0
  3  4  1  0
  4  5  1  0
  5  6  2  0
  6  7  1  0
  7  8  2  0
  8  9  1  0
  9 10  1  0
  9 11  2  0
 11 12  1  0
  4 13  2  0
 13 14  1  0
 14 15  1  0
 14 16  2  0
 16 17  1  0
 17 18  2  0
 18 19  1  0
 18 20  1  0
 20 21  2  0
 21 22  1  0
 22 23  1  0
 22 24  2  0
 24 25  1  0
 16  2  1  0
 24 17  1  0
 11  5  1  0
M  END
>  <_Model>  (8) 
4

>  <_Energy>  (8) 
54.165792392400014

$$$$
Clc1cc(-c2ccnc(Cl)c2Cl)cc(Cl)c1-c1c(Cl)cnc(Cl)c1Cl Clc1cc([*:2])cc(Cl)c1[*:1] Clc1cnc(Cl)c(Cl)c1[*:1].Clc1nccc([*:2])c1Cl 5.724837569748158 3.0945629048283485
     RDKit          3D

 25 27  0  0  0  0  0  0  0  0999 V2000
    1.4867   -0.8429   -2.5885 Cl  0  0  0  0  0  0  0  0  0  0  0  0
    0.6726   -0.3732   -1.0996 C   0  0  0  0  0  0  0  0  0  0  0  0
   -0.7252   -0.3326   -1.0841 C   0  0  0  0  0  0  0  0  0  0  0  0
   -1.4144    0.0452    0.0772 C   0  0  0  0  0  0  0  0  0  0  0  0
   -2.8942    0.0712    0.0873 C   0  0  0  0  0  0  0  0  0  0  0  0
   -3.5977   -1.0969   -0.2415 C   0  0  0  0  0  0  0  0  0  0  0  0
   -4.9915   -1.0939   -0.2215 C   0  0  0  0  0  0  0  0  0  0  0  0
   -5.6653    0.0372    0.1084 N   0  0  0  0  0  0  0  0  0  0  0  0
   -5.0215    1.1921    0.4227 C   0  0  0  0  0  0  0  0  0  0  0  0
   -5.9840    2.6066    0.8216 Cl  0  0  0  0  0  0  0  0  0  0  0  0
   -3.6159    1.2395    0.4162 C   0  0  0  0  0  0  0  0  0  0  0  0
   -2.7858    2.7614    0.7535 Cl  0  0  0  0  0  0  0  0  0  0  0  0
   -0.6895    0.3614    1.2354 C   0  0  0  0  0  0  0  0  0  0  0  0
    0.7084    0.3244    1.2314 C   0  0  0  0  0  0  0  0  0  0  0  0
    1.5676    0.7373    2.7117 Cl  0  0  0  0  0  0  0  0  0  0  0  0
    1.4001   -0.0416    0.0602 C   0  0  0  0  0  0  0  0  0  0  0  0
    2.8789   -0.0797    0.0490 C   0  0  0  0  0  0  0  0  0  0  0  0
    3.6130    1.0696   -0.2963 C   0  0  0  0  0  0  0  0  0  0  0  0
    2.8177    2.5808   -0.7242 Cl  0  0  0  0  0  0  0  0  0  0  0  0
    5.0080    1.0128   -0.3007 C   0  0  0  0  0  0  0  0  0  0  0  0
    5.6465   -0.1401    0.0250 N   0  0  0  0  0  0  0  0  0  0  0  0
    4.9688   -1.2680    0.3633 C   0  0  0  0  0  0  0  0  0  0  0  0
    5.8861   -2.7100    0.7691 Cl  0  0  0  0  0  0  0  0  0  0  0  0
    3.5643   -1.2642    0.3834 C   0  0  0  0  0  0  0  0  0  0  0  0
    2.6760   -2.7253    0.8226 Cl  0  0  0  0  0  0  0  0  0  0  0  0
  1  2  1  0
  2  3  2  0
  3  4  1  0
  4  5  1  0
  5  6  2  0
  6  7  1  0
  7  8  2  0
  8  9  1  0
  9 10  1  0
  9 11  2  0
 11 12  1  0
  4 13  2  0
 13 14  1  0
 14 15  1  0
 14 16  2  0
 16 17  1  0
 17 18  2  0
 18 19  1  0
 18 20  1  0
 20 21  2  0
 21 22  1  0
 22 23  1  0
 22 24  2  0
 24 25  1  0
 16  2  1  0
 24 17  1  0
 11  5  1  0
M  END
>  <_Model>  (9) 
10

>  <_Energy>  (9) 
54.167461415509464

$$$$
Clc1cc(-c2ccnc(Cl)c2Cl)cc(Cl)c1-c1c(Cl)cnc(Cl)c1Cl Clc1cc([*:2])cc(Cl)c1[*:1] Clc1cnc(Cl)c(Cl)c1[*:1].Clc1nccc([*:2])c1Cl 5.724837569748158 3.0945629048283485
     RDKit          3D

 25 27  0  0  0  0  0  0  0  0999 V2000
   -1.0106    2.7064    1.1017 Cl  0  0  0  0  0  0  0  0  0  0  0  0
   -0.4642    1.1872    0.3994 C   0  0  0  0  0  0  0  0  0  0  0  0
    0.9105    0.9596    0.2815 C   0  0  0  0  0  0  0  0  0  0  0  0
    1.3903   -0.2387   -0.2671 C   0  0  0  0  0  0  0  0  0  0  0  0
    2.8454   -0.4720   -0.4040 C   0  0  0  0  0  0  0  0  0  0  0  0
    3.3769   -0.7283   -1.6765 C   0  0  0  0  0  0  0  0  0  0  0  0
    4.7474   -0.9346   -1.8253 C   0  0  0  0  0  0  0  0  0  0  0  0
    5.5636   -0.8941   -0.7415 N   0  0  0  0  0  0  0  0  0  0  0  0
    5.0871   -0.6596    0.5094 C   0  0  0  0  0  0  0  0  0  0  0  0
    6.2229   -0.6417    1.8496 Cl  0  0  0  0  0  0  0  0  0  0  0  0
    3.7116   -0.4460    0.7109 C   0  0  0  0  0  0  0  0  0  0  0  0
    3.0880   -0.2149    2.3470 Cl  0  0  0  0  0  0  0  0  0  0  0  0
    0.4775   -1.2021   -0.7200 C   0  0  0  0  0  0  0  0  0  0  0  0
   -0.8995   -0.9851   -0.6073 C   0  0  0  0  0  0  0  0  0  0  0  0
   -2.0003   -2.2336   -1.1813 Cl  0  0  0  0  0  0  0  0  0  0  0  0
   -1.3802    0.2128   -0.0430 C   0  0  0  0  0  0  0  0  0  0  0  0
   -2.8356    0.4467    0.0818 C   0  0  0  0  0  0  0  0  0  0  0  0
   -3.5172    0.0535    1.2478 C   0  0  0  0  0  0  0  0  0  0  0  0
   -2.6825   -0.7226    2.5896 Cl  0  0  0  0  0  0  0  0  0  0  0  0
   -4.8908    0.2833    1.3459 C   0  0  0  0  0  0  0  0  0  0  0  0
   -5.5589    0.8798    0.3256 N   0  0  0  0  0  0  0  0  0  0  0  0
   -4.9319    1.2721   -0.8141 C   0  0  0  0  0  0  0  0  0  0  0  0
   -5.8841    2.0358   -2.0771 Cl  0  0  0  0  0  0  0  0  0  0  0  0
   -3.5507    1.0641   -0.9632 C   0  0  0  0  0  0  0  0  0  0  0  0
   -2.7281    1.5714   -2.4406 Cl  0  0  0  0  0  0  0  0  0  0  0  0
  1  2  1  0
  2  3  2  0
  3  4  1  0
  4  5  1  0
  5  6  2  0
  6  7  1  0
  7  8  2  0
  8  9  1  0
  9 10  1  0
  9 11  2  0
 11 12  1  0
  4 13  2  0
 13 14  1  0
 14 15  1  0
 14 16  2  0
 16 17  1  0
 17 18  2  0
 18 19  1  0
 18 20  1  0
 20 21  2  0
 21 22  1  0
 22 23  1  0
 22 24  2  0
 24 25  1  0
 16  2  1  0
 24 17  1  0
 11  5  1  0
M  END
>  <_Model>  (10) 
11

>  <_Energy>  (10) 
54.167461423439825

$$$$
Clc1cc(-c2ccnc(Cl)c2Cl)cc(Cl)c1-c1c(Cl)cnc(Cl)c1Cl Clc1cc([*:2])cc(Cl)c1[*:1] Clc1cnc(Cl)c(Cl)c1[*:1].Clc1nccc([*:2])c1Cl 5.724837569748158 3.0945629048283485
     RDKit          3D

 25 27  0  0  0  0  0  0  0  0999 V2000
    1.2436   -2.1718   -1.9134 Cl  0  0  0  0  0  0  0  0  0  0  0  0
    0.5661   -0.9495   -0.8423 C   0  0  0  0  0  0  0  0  0  0  0  0
   -0.8193   -0.9159   -0.6555 C   0  0  0  0  0  0  0  0  0  0  0  0
   -1.4024    0.0439    0.1847 C   0  0  0  0  0  0  0  0  0  0  0  0
   -2.8676    0.0691    0.3923 C   0  0  0  0  0  0  0  0  0  0  0  0
   -3.3731   -0.0644    1.6938 C   0  0  0  0  0  0  0  0  0  0  0  0
   -4.7509   -0.0586    1.9050 C   0  0  0  0  0  0  0  0  0  0  0  0
   -5.6000    0.0825    0.8554 N   0  0  0  0  0  0  0  0  0  0  0  0
   -5.1505    0.2253   -0.4191 C   0  0  0  0  0  0  0  0  0  0  0  0
   -6.3295    0.4163   -1.7075 Cl  0  0  0  0  0  0  0  0  0  0  0  0
   -3.7691    0.2262   -0.6832 C   0  0  0  0  0  0  0  0  0  0  0  0
   -3.1889    0.4857   -2.3310 Cl  0  0  0  0  0  0  0  0  0  0  0  0
   -0.5805    0.9594    0.8576 C   0  0  0  0  0  0  0  0  0  0  0  0
    0.8063    0.9349    0.6785 C   0  0  0  0  0  0  0  0  0  0  0  0
    1.7892    2.1155    1.5389 Cl  0  0  0  0  0  0  0  0  0  0  0  0
    1.3896   -0.0204   -0.1768 C   0  0  0  0  0  0  0  0  0  0  0  0
    2.8556   -0.0492   -0.3727 C   0  0  0  0  0  0  0  0  0  0  0  0
    3.4452    0.6989   -1.4079 C   0  0  0  0  0  0  0  0  0  0  0  0
    2.4805    1.6878   -2.4992 Cl  0  0  0  0  0  0  0  0  0  0  0  0
    4.8305    0.6581   -1.5760 C   0  0  0  0  0  0  0  0  0  0  0  0
    5.5979   -0.0962   -0.7482 N   0  0  0  0  0  0  0  0  0  0  0  0
    5.0615   -0.8306    0.2612 C   0  0  0  0  0  0  0  0  0  0  0  0
    6.1385   -1.7744    1.2782 Cl  0  0  0  0  0  0  0  0  0  0  0  0
    3.6729   -0.8244    0.4732 C   0  0  0  0  0  0  0  0  0  0  0  0
    2.9677   -1.7764    1.7820 Cl  0  0  0  0  0  0  0  0  0  0  0  0
  1  2  1  0
  2  3  2  0
  3  4  1  0
  4  5  1  0
  5  6  2  0
  6  7  1  0
  7  8  2  0
  8  9  1  0
  9 10  1  0
  9 11  2  0
 11 12  1  0
  4 13  2  0
 13 14  1  0
 14 15  1  0
 14 16  2  0
 16 17  1  0
 17 18  2  0
 18 19  1  0
 18 20  1  0
 20 21  2  0
 21 22  1  0
 22 23  1  0
 22 24  2  0
 24 25  1  0
 16  2  1  0
 24 17  1  0
 11  5  1  0
M  END
>  <_Model>  (11) 
19

>  <_Energy>  (11) 
54.16746156408662

$$$$
CC(C#CC(=O)[O-])=CC#CC(=O)[O-] CC(=C[*:2])[*:1] O=C([O-])C#C[*:1].O=C([O-])C#C[*:2] 3.7117596500851184 3.056425516807631
     RDKit          3D

 13 12  0  0  0  0  0  0  0  0999 V2000
   -0.6814   -2.7710    0.5938 C   0  0  0  0  0  0  0  0  0  0  0  0
   -0.1675   -1.3859    0.3355 C   0  0  0  0  0  0  0  0  0  0  0  0
   -1.0914   -0.2750    0.3960 C   0  0  0  0  0  0  0  0  0  0  0  0
   -1.8585    0.6537    0.4455 C   0  0  0  0  0  0  0  0  0  0  0  0
   -2.7681    1.7617    0.5034 C   0  0  0  0  0  0  0  0  0  0  0  0
   -3.9822    1.5661    0.7686 O   0  0  0  0  0  0  0  0  0  0  0  0
   -2.3081    3.0498    0.2668 O   0  0  0  0  0  1  0  0  0  0  0  0
    1.1309   -1.2006    0.0545 C   0  0  0  0  0  0  0  0  0  0  0  0
    1.6916    0.1034   -0.2041 C   0  0  0  0  0  0  0  0  0  0  0  0
    2.1555    1.1950   -0.4195 C   0  0  0  0  0  0  0  0  0  0  0  0
    2.7032    2.4963   -0.6753 C   0  0  0  0  0  0  0  0  0  0  0  0
    3.9275    2.6240   -0.9349 O   0  0  0  0  0  0  0  0  0  0  0  0
    1.8816    3.6145   -0.6360 O   0  0  0  0  0  1  0  0  0  0  0  0
  1  2  1  0
  2  3  1  0
  3  4  3  0
  4  5  1  0
  5  6  2  0
  5  7  1  0
  2  8  2  3
  8  9  1  0
  9 10  3  0
 10 11  1  0
 11 12  2  0
 11 13  1  0
M  CHG  2   7  -1  13  -1
M  END
>  <_Model>  (12) 
0

>  <_Energy>  (12) 
2.2565308980697814

$$$$
CC(C#CC(=O)[O-])=CC#CC(=O)[O-] CC(=C[*:2])[*:1] O=C([O-])C#C[*:1].O=C([O-])C#C[*:2] 3.7117596500851184 3.056425516807631
     RDKit          3D

 13 12  0  0  0  0  0  0  0  0999 V2000
   -0.5099   -2.6869   -0.8148 C   0  0  0  0  0  0  0  0  0  0  0  0
   -0.0934   -1.3474   -0.2841 C   0  0  0  0  0  0  0  0  0  0  0  0
   -0.9711   -0.2147   -0.4794 C   0  0  0  0  0  0  0  0  0  0  0  0
   -1.7001    0.7320   -0.6402 C   0  0  0  0  0  0  0  0  0  0  0  0
   -2.5655    1.8604   -0.8300 C   0  0  0  0  0  0  0  0  0  0  0  0
   -2.2306    2.9908   -0.3908 O   0  0  0  0  0  0  0  0  0  0  0  0
   -3.7722    1.7051   -1.4981 O   0  0  0  0  0  1  0  0  0  0  0  0
    1.0773   -1.2220    0.3582 C   0  0  0  0  0  0  0  0  0  0  0  0
    1.5391    0.0357    0.8936 C   0  0  0  0  0  0  0  0  0  0  0  0
    1.9210    1.0887    1.3393 C   0  0  0  0  0  0  0  0  0  0  0  0
    2.3714    2.3441    1.8682 C   0  0  0  0  0  0  0  0  0  0  0  0
    3.4770    2.4159    2.4640 O   0  0  0  0  0  0  0  0  0  0  0  0
    1.5866    3.4797    1.7223 O   0  0  0  0  0  1  0  0  0  0  0  0
  1  2  1  0
  2  3  1  0
  3  4  3  0
  4  5  1  0
  5  6  2  0
  5  7  1  0
  2  8  2  3
  8  9  1  0
  9 10  3  0
 10 11  1  0
 11 12  2  0
 11 13  1  0
M  CHG  2   7  -1  13  -1
M  END
>  <_Model>  (13) 
1

>  <_Energy>  (13) 
2.2612541512983464

$$$$
CC(C#CC(=O)[O-])=CC#CC(=O)[O-] CC(=C[*:2])[*:1] O=C([O-])C#C[*:1].O=C([O-])C#C[*:2] 3.7117596500851184 3.056425516807631
     RDKit          3D

 13 12  0  0  0  0  0  0  0  0999 V2000
    1.6438   -2.3337   -0.3377 C   0  0  0  0  0  0  0  0  0  0  0  0
    0.6612   -1.2228   -0.1147 C   0  0  0  0  0  0  0  0  0  0  0  0
    1.1525    0.1326   -0.0009 C   0  0  0  0  0  0  0  0  0  0  0  0
    1.5582    1.2638    0.0945 C   0  0  0  0  0  0  0  0  0  0  0  0
    2.0371    2.6114    0.2087 C   0  0  0  0  0  0  0  0  0  0  0  0
    3.2671    2.8535    0.1023 O   0  0  0  0  0  0  0  0  0  0  0  0
    1.1426    3.6482    0.4365 O   0  0  0  0  0  1  0  0  0  0  0  0
   -0.6478   -1.5015   -0.0258 C   0  0  0  0  0  0  0  0  0  0  0  0
   -1.6468   -0.4822    0.1865 C   0  0  0  0  0  0  0  0  0  0  0  0
   -2.4780    0.3729    0.3637 C   0  0  0  0  0  0  0  0  0  0  0  0
   -3.4644    1.3933    0.5748 C   0  0  0  0  0  0  0  0  0  0  0  0
   -3.1060    2.5825    0.7750 O   0  0  0  0  0  0  0  0  0  0  0  0
   -4.8140    1.0685    0.5578 O   0  0  0  0  0  1  0  0  0  0  0  0
  1  2  1  0
  2  3  1  0
  3  4  3  0
  4  5  1  0
  5  6  2  0
  5  7  1  0
  2  8  2  3
  8  9  1  0
  9 10  3  0
 10 11  1  0
 11 12  2  0
 11 13  1  0
M  CHG  2   7  -1  13  -1
M  END
>  <_Model>  (14) 
2

>  <_Energy>  (14) 
2.261634764389853

$$$$
CC(C#CC(=O)[O-])=CC#CC(=O)[O-] CC(=C[*:2])[*:1] O=C([O-])C#C[*:1].O=C([O-])C#C[*:2] 3.7117596500851184 3.056425516807631
     RDKit          3D

 13 12  0  0  0  0  0  0  0  0999 V2000
   -1.3280   -1.4597    2.0393 C   0  0  0  0  0  0  0  0  0  0  0  0
   -0.7880   -0.6666    0.8866 C   0  0  0  0  0  0  0  0  0  0  0  0
    0.6430   -0.4990    0.7630 C   0  0  0  0  0  0  0  0  0  0  0  0
    1.8355   -0.3571    0.6565 C   0  0  0  0  0  0  0  0  0  0  0  0
    3.2541   -0.1862    0.5270 C   0  0  0  0  0  0  0  0  0  0  0  0
    3.7189    0.5426   -0.3870 O   0  0  0  0  0  0  0  0  0  0  0  0
    4.1137   -0.8248    1.4102 O   0  0  0  0  0  1  0  0  0  0  0  0
   -1.6344   -0.1289   -0.0042 C   0  0  0  0  0  0  0  0  0  0  0  0
   -1.1836    0.6450   -1.1355 C   0  0  0  0  0  0  0  0  0  0  0  0
   -0.8026    1.2909   -2.0794 C   0  0  0  0  0  0  0  0  0  0  0  0
   -0.3455    2.0590   -3.2018 C   0  0  0  0  0  0  0  0  0  0  0  0
    0.8871    2.2283   -3.3880 O   0  0  0  0  0  0  0  0  0  0  0  0
   -1.2632    2.6152   -4.0823 O   0  0  0  0  0  1  0  0  0  0  0  0
  1  2  1  0
  2  3  1  0
  3  4  3  0
  4  5  1  0
  5  6  2  0
  5  7  1  0
  2  8  2  3
  8  9  1  0
  9 10  3  0
 10 11  1  0
 11 12  2  0
 11 13  1  0
M  CHG  2   7  -1  13  -1
M  END
>  <_Model>  (15) 
5

>  <_Energy>  (15) 
2.265967580040762

$$$$
CC(C#CC(=O)[O-])=CC#CC(=O)[O-] CC(=C[*:2])[*:1] O=C([O-])C#C[*:1].O=C([O-])C#C[*:2] 3.7117596500851184 3.056425516807631
     RDKit          3D

 13 12  0  0  0  0  0  0  0  0999 V2000
   -0.1099   -0.5604    1.3650 C   0  0  0  0  0  0  0  0  0  0  0  0
    0.4574   -0.0140    0.0833 C   0  0  0  0  0  0  0  0  0  0  0  0
    1.8810    0.1923   -0.0143 C   0  0  0  0  0  0  0  0  0  0  0  0
    3.0716    0.3645   -0.0949 C   0  0  0  0  0  0  0  0  0  0  0  0
    4.4885    0.5696   -0.1913 C   0  0  0  0  0  0  0  0  0  0  0  0
    5.2321    0.2935    0.7851 O   0  0  0  0  0  0  0  0  0  0  0  0
    5.0387    1.0727   -1.3621 O   0  0  0  0  0  1  0  0  0  0  0  0
   -0.3175    0.2865   -0.9688 C   0  0  0  0  0  0  0  0  0  0  0  0
   -1.7483    0.1096   -0.9520 C   0  0  0  0  0  0  0  0  0  0  0  0
   -2.9445   -0.0390   -0.9363 C   0  0  0  0  0  0  0  0  0  0  0  0
   -4.3681   -0.2168   -0.9152 C   0  0  0  0  0  0  0  0  0  0  0  0
   -5.0545    0.0793   -1.9270 O   0  0  0  0  0  0  0  0  0  0  0  0
   -4.9881   -0.7157    0.2221 O   0  0  0  0  0  1  0  0  0  0  0  0
  1  2  1  0
  2  3  1  0
  3  4  3  0
  4  5  1  0
  5  6  2  0
  5  7  1  0
  2  8  2  3
  8  9  1  0
  9 10  3  0
 10 11  1  0
 11 12  2  0
 11 13  1  0
M  CHG  2   7  -1  13  -1
M  END
>  <_Model>  (16) 
9

>  <_Energy>  (16) 
2.283680563661335

$$$$
CC(C#CC(=O)[O-])=CC#CC(=O)[O-] CC(=C[*:2])[*:1] O=C([O-])C#C[*:1].O=C([O-])C#C[*:2] 3.7117596500851184 3.056425516807631
     RDKit          3D

 13 12  0  0  0  0  0  0  0  0999 V2000
   -0.2397   -1.5409   -0.0387 C   0  0  0  0  0  0  0  0  0  0  0  0
   -0.4503   -0.0615   -0.2137 C   0  0  0  0  0  0  0  0  0  0  0  0
   -1.7085    0.4035   -0.7422 C   0  0  0  0  0  0  0  0  0  0  0  0
   -2.7610    0.7914   -1.1843 C   0  0  0  0  0  0  0  0  0  0  0  0
   -4.0137    1.2527   -1.7104 C   0  0  0  0  0  0  0  0  0  0  0  0
   -4.2153    2.4846   -1.8664 O   0  0  0  0  0  0  0  0  0  0  0  0
   -5.0033    0.3395   -2.0472 O   0  0  0  0  0  1  0  0  0  0  0  0
    0.4932    0.8360    0.1056 C   0  0  0  0  0  0  0  0  0  0  0  0
    1.7768    0.4532    0.6391 C   0  0  0  0  0  0  0  0  0  0  0  0
    2.8496    0.1315    1.0851 C   0  0  0  0  0  0  0  0  0  0  0  0
    4.1257   -0.2540    1.6158 C   0  0  0  0  0  0  0  0  0  0  0  0
    4.9801    0.6243    1.9010 O   0  0  0  0  0  0  0  0  0  0  0  0
    4.4175   -1.5964    1.8146 O   0  0  0  0  0  1  0  0  0  0  0  0
  1  2  1  0
  2  3  1  0
  3  4  3  0
  4  5  1  0
  5  6  2  0
  5  7  1  0
  2  8  2  3
  8  9  1  0
  9 10  3  0
 10 11  1  0
 11 12  2  0
 11 13  1  0
M  CHG  2   7  -1  13  -1
M  END
>  <_Model>  (17) 
10

>  <_Energy>  (17) 
2.2836856237229775

$$$$
CC(C#CC(=O)[O-])=CC#CC(=O)[O-] CC(=C[*:2])[*:1] O=C([O-])C#C[*:1].O=C([O-])C#C[*:2] 3.7117596500851184 3.056425516807631
     RDKit          3D

 13 12  0  0  0  0  0  0  0  0999 V2000
    0.0615   -1.5812   -0.0523 C   0  0  0  0  0  0  0  0  0  0  0  0
    0.4593   -0.1308   -0.0149 C   0  0  0  0  0  0  0  0  0  0  0  0
    1.8071    0.2105    0.3667 C   0  0  0  0  0  0  0  0  0  0  0  0
    2.9345    0.4949    0.6859 C   0  0  0  0  0  0  0  0  0  0  0  0
    4.2760    0.8338    1.0658 C   0  0  0  0  0  0  0  0  0  0  0  0
    5.0952   -0.0745    1.3598 O   0  0  0  0  0  0  0  0  0  0  0  0
    4.6699    2.1641    1.1089 O   0  0  0  0  0  1  0  0  0  0  0  0
   -0.3982    0.8522   -0.3246 C   0  0  0  0  0  0  0  0  0  0  0  0
   -1.7620    0.5952   -0.7156 C   0  0  0  0  0  0  0  0  0  0  0  0
   -2.9020    0.3786   -1.0424 C   0  0  0  0  0  0  0  0  0  0  0  0
   -4.2585    0.1190   -1.4311 C   0  0  0  0  0  0  0  0  0  0  0  0
   -4.6802   -1.0648   -1.4911 O   0  0  0  0  0  0  0  0  0  0  0  0
   -5.1057    1.1739   -1.7411 O   0  0  0  0  0  1  0  0  0  0  0  0
  1  2  1  0
  2  3  1  0
  3  4  3  0
  4  5  1  0
  5  6  2  0
  5  7  1  0
  2  8  2  3
  8  9  1  0
  9 10  3  0
 10 11  1  0
 11 12  2  0
 11 13  1  0
M  CHG  2   7  -1  13  -1
M  END
>  <_Model>  (18) 
12

>  <_Energy>  (18) 
2.2840536679695522

$$$$
CC(C#CC(=O)[O-])=CC#CC(=O)[O-] CC(=C[*:2])[*:1] O=C([O-])C#C[*:1].O=C([O-])C#C[*:2] 3.7117596500851184 3.056425516807631
     RDKit          3D

 13 12  0  0  0  0  0  0  0  0999 V2000
    0.1512   -1.3881    0.5842 C   0  0  0  0  0  0  0  0  0  0  0  0
   -0.4549   -0.1664   -0.0512 C   0  0  0  0  0  0  0  0  0  0  0  0
   -1.8911   -0.0495   -0.1019 C   0  0  0  0  0  0  0  0  0  0  0  0
   -3.0921    0.0473   -0.1438 C   0  0  0  0  0  0  0  0  0  0  0  0
   -4.5215    0.1621   -0.1934 C   0  0  0  0  0  0  0  0  0  0  0  0
   -5.0658    0.8651   -1.0834 O   0  0  0  0  0  0  0  0  0  0  0  0
   -5.3039   -0.5028    0.7407 O   0  0  0  0  0  1  0  0  0  0  0  0
    0.2968    0.8143   -0.5717 C   0  0  0  0  0  0  0  0  0  0  0  0
    1.7380    0.7735   -0.5612 C   0  0  0  0  0  0  0  0  0  0  0  0
    2.9429    0.7378   -0.5517 C   0  0  0  0  0  0  0  0  0  0  0  0
    4.3770    0.6936   -0.5395 C   0  0  0  0  0  0  0  0  0  0  0  0
    4.9734   -0.1956    0.1211 O   0  0  0  0  0  0  0  0  0  0  0  0
    5.1065    1.6316   -1.2571 O   0  0  0  0  0  1  0  0  0  0  0  0
  1  2  1  0
  2  3  1  0
  3  4  3  0
  4  5  1  0
  5  6  2  0
  5  7  1  0
  2  8  2  3
  8  9  1  0
  9 10  3  0
 10 11  1  0
 11 12  2  0
 11 13  1  0
M  CHG  2   7  -1  13  -1
M  END
>  <_Model>  (19) 
14

>  <_Energy>  (19) 
2.285453366890772

$$$$
