CCC(C#CC(=O)[O-])=CC#CC(=O)[O-]
     RDKit          3D

 14 13  0  0  0  0  0  0  0  0999 V2000
   -0.6227   -2.8825    1.1227 C   0  0  0  0  0  0  0  0  0  0  0  0
   -0.8705   -2.1770   -0.2083 C   0  0  0  0  0  0  0  0  0  0  0  0
   -0.2019   -0.8271   -0.2445 C   0  0  0  0  0  0  0  0  0  0  0  0
   -1.0302    0.3575   -0.1887 C   0  0  0  0  0  0  0  0  0  0  0  0
   -1.7173    1.3469   -0.1418 C   0  0  0  0  0  0  0  0  0  0  0  0
   -2.5316    2.5268   -0.0860 C   0  0  0  0  0  0  0  0  0  0  0  0
   -3.7842    2.4249   -0.0276 O   0  0  0  0  0  0  0  0  0  0  0  0
   -1.9368    3.7810   -0.0966 O   0  0  0  0  0  1  0  0  0  0  0  0
    1.1335   -0.7368   -0.3536 C   0  0  0  0  0  0  0  0  0  0  0  0
    1.8257    0.5283   -0.4017 C   0  0  0  0  0  0  0  0  0  0  0  0
    2.3994    1.5878   -0.4414 C   0  0  0  0  0  0  0  0  0  0  0  0
    3.0779    2.8511   -0.4882 C   0  0  0  0  0  0  0  0  0  0  0  0
    4.3255    2.8903   -0.6461 O   0  0  0  0  0  0  0  0  0  0  0  0
    2.3572    4.0305   -0.3593 O   0  0  0  0  0  1  0  0  0  0  0  0
  1  2  1  0
  2  3  1  0
  3  4  1  0
  4  5  3  0
  5  6  1  0
  6  7  2  0
  6  8  1  0
  3  9  2  3
  9 10  1  0
 10 11  3  0
 11 12  1  0
 12 13  2  0
 12 14  1  0
M  CHG  2   8  -1  14  -1
M  END
>  <_Model>  (1) 
0

>  <_Energy>  (1) 
3.2853957289904487

$$$$
CCC(C#CC(=O)[O-])=CC#CC(=O)[O-]
     RDKit          3D

 14 13  0  0  0  0  0  0  0  0999 V2000
   -2.6629   -1.5351    0.6767 C   0  0  0  0  0  0  0  0  0  0  0  0
   -1.8253   -0.4773    1.3910 C   0  0  0  0  0  0  0  0  0  0  0  0
   -0.5318   -0.2202    0.6623 C   0  0  0  0  0  0  0  0  0  0  0  0
   -0.3687    1.0358   -0.0364 C   0  0  0  0  0  0  0  0  0  0  0  0
   -0.2297    2.0814   -0.6202 C   0  0  0  0  0  0  0  0  0  0  0  0
   -0.0615    3.3248   -1.3159 C   0  0  0  0  0  0  0  0  0  0  0  0
    1.0189    3.5710   -1.9116 O   0  0  0  0  0  0  0  0  0  0  0  0
   -1.0908    4.2559   -1.3319 O   0  0  0  0  0  1  0  0  0  0  0  0
    0.4526   -1.1330    0.6899 C   0  0  0  0  0  0  0  0  0  0  0  0
    1.7143   -0.9363    0.0181 C   0  0  0  0  0  0  0  0  0  0  0  0
    2.7668   -0.7676   -0.5449 C   0  0  0  0  0  0  0  0  0  0  0  0
    4.0179   -0.5624   -1.2165 C   0  0  0  0  0  0  0  0  0  0  0  0
    4.9081   -1.4503   -1.1742 O   0  0  0  0  0  0  0  0  0  0  0  0
    4.2459    0.6164   -1.9131 O   0  0  0  0  0  1  0  0  0  0  0  0
  1  2  1  0
  2  3  1  0
  3  4  1  0
  4  5  3  0
  5  6  1  0
  6  7  2  0
  6  8  1  0
  3  9  2  3
  9 10  1  0
 10 11  3  0
 11 12  1  0
 12 13  2  0
 12 14  1  0
M  CHG  2   8  -1  14  -1
M  END
>  <_Model>  (2) 
2

>  <_Energy>  (2) 
3.2898818911144945

$$$$
CCC(C#CC(=O)[O-])=CC#CC(=O)[O-]
     RDKit          3D

 14 13  0  0  0  0  0  0  0  0999 V2000
   -0.7358    3.0652    0.0514 C   0  0  0  0  0  0  0  0  0  0  0  0
   -0.2645    2.0617    1.1010 C   0  0  0  0  0  0  0  0  0  0  0  0
    0.0927    0.7399    0.4721 C   0  0  0  0  0  0  0  0  0  0  0  0
   -0.7773   -0.3930    0.7003 C   0  0  0  0  0  0  0  0  0  0  0  0
   -1.5006   -1.3390    0.8880 C   0  0  0  0  0  0  0  0  0  0  0  0
   -2.3589   -2.4671    1.1090 C   0  0  0  0  0  0  0  0  0  0  0  0
   -3.4022   -2.3384    1.8001 O   0  0  0  0  0  0  0  0  0  0  0  0
   -2.0378   -3.7009    0.5600 O   0  0  0  0  0  1  0  0  0  0  0  0
    1.2117    0.6202   -0.2605 C   0  0  0  0  0  0  0  0  0  0  0  0
    1.6073   -0.6222   -0.8783 C   0  0  0  0  0  0  0  0  0  0  0  0
    1.9338   -1.6624   -1.3927 C   0  0  0  0  0  0  0  0  0  0  0  0
    2.3192   -2.9022   -2.0034 C   0  0  0  0  0  0  0  0  0  0  0  0
    1.6058   -3.9271   -1.8506 O   0  0  0  0  0  0  0  0  0  0  0  0
    3.4790   -2.9708   -2.7629 O   0  0  0  0  0  1  0  0  0  0  0  0
  1  2  1  0
  2  3  1  0
  3  4  1  0
  4  5  3  0
  5  6  1  0
  6  7  2  0
  6  8  1  0
  3  9  2  3
  9 10  1  0
 10 11  3  0
 11 12  1  0
 12 13  2  0
 12 14  1  0
M  CHG  2   8  -1  14  -1
M  END
>  <_Model>  (3) 
4

>  <_Energy>  (3) 
3.2898857304956564

$$$$
CCC(C#CC(=O)[O-])=CC#CC(=O)[O-]
     RDKit          3D

 14 13  0  0  0  0  0  0  0  0999 V2000
   -1.1856   -2.8493    0.6030 C   0  0  0  0  0  0  0  0  0  0  0  0
   -1.6845   -1.4195    0.7970 C   0  0  0  0  0  0  0  0  0  0  0  0
   -0.6094   -0.4160    0.4691 C   0  0  0  0  0  0  0  0  0  0  0  0
   -0.7450    0.3757   -0.7339 C   0  0  0  0  0  0  0  0  0  0  0  0
   -0.8549    1.0366   -1.7361 C   0  0  0  0  0  0  0  0  0  0  0  0
   -0.9830    1.8245   -2.9282 C   0  0  0  0  0  0  0  0  0  0  0  0
   -0.1101    2.6855   -3.2099 O   0  0  0  0  0  0  0  0  0  0  0  0
   -2.0700    1.6367   -3.7708 O   0  0  0  0  0  1  0  0  0  0  0  0
    0.4347   -0.2490    1.2969 C   0  0  0  0  0  0  0  0  0  0  0  0
    1.4878    0.7026    1.0378 C   0  0  0  0  0  0  0  0  0  0  0  0
    2.3656    1.4988    0.8173 C   0  0  0  0  0  0  0  0  0  0  0  0
    3.4086    2.4476    0.5515 C   0  0  0  0  0  0  0  0  0  0  0  0
    3.3575    3.1660   -0.4800 O   0  0  0  0  0  0  0  0  0  0  0  0
    4.4740    2.5728    1.4324 O   0  0  0  0  0  1  0  0  0  0  0  0
  1  2  1  0
  2  3  1  0
  3  4  1  0
  4  5  3  0
  5  6  1  0
  6  7  2  0
  6  8  1  0
  3  9  2  3
  9 10  1  0
 10 11  3  0
 11 12  1  0
 12 13  2  0
 12 14  1  0
M  CHG  2   8  -1  14  -1
M  END
>  <_Model>  (4) 
6

>  <_Energy>  (4) 
3.2943636440201187

$$$$
CCC(C#CC(=O)[O-])=CC#CC(=O)[O-]
     RDKit          3D

 14 13  0  0  0  0  0  0  0  0999 V2000
    0.2402    2.0459   -0.1361 C   0  0  0  0  0  0  0  0  0  0  0  0
    0.1268    0.7924   -1.0004 C   0  0  0  0  0  0  0  0  0  0  0  0
   -0.4828   -0.3543   -0.2272 C   0  0  0  0  0  0  0  0  0  0  0  0
   -1.8649   -0.6872   -0.4698 C   0  0  0  0  0  0  0  0  0  0  0  0
   -3.0205   -0.9638   -0.6733 C   0  0  0  0  0  0  0  0  0  0  0  0
   -4.3961   -1.2923   -0.9158 C   0  0  0  0  0  0  0  0  0  0  0  0
   -4.9182   -2.2806   -0.3385 O   0  0  0  0  0  0  0  0  0  0  0  0
   -5.1507   -0.5194   -1.7875 O   0  0  0  0  0  1  0  0  0  0  0  0
    0.2108   -1.0858    0.6596 C   0  0  0  0  0  0  0  0  0  0  0  0
    1.6036   -0.8498    0.9466 C   0  0  0  0  0  0  0  0  0  0  0  0
    2.7681   -0.6493    1.1853 C   0  0  0  0  0  0  0  0  0  0  0  0
    4.1536   -0.4063    1.4674 C   0  0  0  0  0  0  0  0  0  0  0  0
    4.8574   -1.3090    1.9895 O   0  0  0  0  0  0  0  0  0  0  0  0
    4.7174    0.8252    1.1641 O   0  0  0  0  0  1  0  0  0  0  0  0
  1  2  1  0
  2  3  1  0
  3  4  1  0
  4  5  3  0
  5  6  1  0
  6  7  2  0
  6  8  1  0
  3  9  2  3
  9 10  1  0
 10 11  3  0
 11 12  1  0
 12 13  2  0
 12 14  1  0
M  CHG  2   8  -1  14  -1
M  END
>  <_Model>  (5) 
11

>  <_Energy>  (5) 
3.520420268931095

$$$$
CCC(C#CC(=O)[O-])=CC#CC(=O)[O-]
     RDKit          3D

 14 13  0  0  0  0  0  0  0  0999 V2000
   -1.9797   -0.1373    0.6020 C   0  0  0  0  0  0  0  0  0  0  0  0
   -1.0750   -0.3961   -0.6005 C   0  0  0  0  0  0  0  0  0  0  0  0
    0.2301    0.3564   -0.4776 C   0  0  0  0  0  0  0  0  0  0  0  0
    0.4051    1.5576   -1.2563 C   0  0  0  0  0  0  0  0  0  0  0  0
    0.5495    2.5620   -1.9074 C   0  0  0  0  0  0  0  0  0  0  0  0
    0.7215    3.7574   -2.6820 C   0  0  0  0  0  0  0  0  0  0  0  0
   -0.2296    4.1990   -3.3771 O   0  0  0  0  0  0  0  0  0  0  0  0
    1.9374    4.4267   -2.6645 O   0  0  0  0  0  1  0  0  0  0  0  0
    1.2374   -0.0549    0.3090 C   0  0  0  0  0  0  0  0  0  0  0  0
    1.1687   -1.2580    1.0999 C   0  0  0  0  0  0  0  0  0  0  0  0
    1.1080   -2.2641    1.7612 C   0  0  0  0  0  0  0  0  0  0  0  0
    1.0308   -3.4615    2.5477 C   0  0  0  0  0  0  0  0  0  0  0  0
    2.0831   -4.0049    2.9720 O   0  0  0  0  0  0  0  0  0  0  0  0
   -0.2055   -4.0205    2.8403 O   0  0  0  0  0  1  0  0  0  0  0  0
  1  2  1  0
  2  3  1  0
  3  4  1  0
  4  5  3  0
  5  6  1  0
  6  7  2  0
  6  8  1  0
  3  9  2  3
  9 10  1  0
 10 11  3  0
 11 12  1  0
 12 13  2  0
 12 14  1  0
M  CHG  2   8  -1  14  -1
M  END
>  <_Model>  (6) 
12

>  <_Energy>  (6) 
3.520453112112304

$$$$
CCC(C#CC(=O)[O-])=CC#CC(=O)[O-]
     RDKit          3D

 14 13  0  0  0  0  0  0  0  0999 V2000
   -0.2167   -2.0306   -0.5976 C   0  0  0  0  0  0  0  0  0  0  0  0
   -0.4207   -1.0127    0.5220 C   0  0  0  0  0  0  0  0  0  0  0  0
   -0.4691    0.3973   -0.0201 C   0  0  0  0  0  0  0  0  0  0  0  0
   -1.7535    1.0422   -0.1403 C   0  0  0  0  0  0  0  0  0  0  0  0
   -2.8280    1.5795   -0.2408 C   0  0  0  0  0  0  0  0  0  0  0  0
   -4.1068    2.2191   -0.3607 C   0  0  0  0  0  0  0  0  0  0  0  0
   -5.1383    1.6513    0.0823 O   0  0  0  0  0  0  0  0  0  0  0  0
   -4.2058    3.4644   -0.9658 O   0  0  0  0  0  1  0  0  0  0  0  0
    0.6311    1.0797   -0.3758 C   0  0  0  0  0  0  0  0  0  0  0  0
    1.9598    0.5322   -0.2627 C   0  0  0  0  0  0  0  0  0  0  0  0
    3.0696    0.0712   -0.1680 C   0  0  0  0  0  0  0  0  0  0  0  0
    4.3889   -0.4810   -0.0549 C   0  0  0  0  0  0  0  0  0  0  0  0
    4.5460   -1.7278    0.0025 O   0  0  0  0  0  0  0  0  0  0  0  0
    5.4919    0.3603   -0.0089 O   0  0  0  0  0  1  0  0  0  0  0  0
  1  2  1  0
  2  3  1  0
  3  4  1  0
  4  5  3  0
  5  6  1  0
  6  7  2  0
  6  8  1  0
  3  9  2  3
  9 10  1  0
 10 11  3  0
 11 12  1  0
 12 13  2  0
 12 14  1  0
M  CHG  2   8  -1  14  -1
M  END
>  <_Model>  (7) 
14

>  <_Energy>  (7) 
3.5221370214800465

$$$$
CCC(C#CC(=O)[O-])=CC#CC(=O)[O-]
     RDKit          3D

 14 13  0  0  0  0  0  0  0  0999 V2000
    0.8242    0.0870    1.9026 C   0  0  0  0  0  0  0  0  0  0  0  0
    0.2683   -0.9090    0.8877 C   0  0  0  0  0  0  0  0  0  0  0  0
   -0.5814   -0.2163   -0.1527 C   0  0  0  0  0  0  0  0  0  0  0  0
   -2.0161   -0.3149   -0.0431 C   0  0  0  0  0  0  0  0  0  0  0  0
   -3.2152   -0.3976    0.0500 C   0  0  0  0  0  0  0  0  0  0  0  0
   -4.6424   -0.4956    0.1607 C   0  0  0  0  0  0  0  0  0  0  0  0
   -5.1928   -1.6254    0.2205 O   0  0  0  0  0  0  0  0  0  0  0  0
   -5.4159    0.6562    0.2010 O   0  0  0  0  0  1  0  0  0  0  0  0
   -0.0588    0.4691   -1.1822 C   0  0  0  0  0  0  0  0  0  0  0  0
    1.3613    0.5971   -1.3940 C   0  0  0  0  0  0  0  0  0  0  0  0
    2.5494    0.7034   -1.5679 C   0  0  0  0  0  0  0  0  0  0  0  0
    3.9641    0.8288   -1.7713 C   0  0  0  0  0  0  0  0  0  0  0  0
    4.7578    0.6142   -0.8192 O   0  0  0  0  0  0  0  0  0  0  0  0
    4.4570    1.1869   -3.0185 O   0  0  0  0  0  1  0  0  0  0  0  0
  1  2  1  0
  2  3  1  0
  3  4  1  0
  4  5  3  0
  5  6  1  0
  6  7  2  0
  6  8  1  0
  3  9  2  3
  9 10  1  0
 10 11  3  0
 11 12  1  0
 12 13  2  0
 12 14  1  0
M  CHG  2   8  -1  14  -1
M  END
>  <_Model>  (8) 
17

>  <_Energy>  (8) 
3.526062559867194

$$$$
Cc1cc(C(=O)[O-])ccc1-c1nnc(-c2ccc(C(=O)[O-])c(C)c2C)nn1
     RDKit          3D

 27 29  0  0  0  0  0  0  0  0999 V2000
    3.3192   -2.1866   -0.6507 C   0  0  0  0  0  0  0  0  0  0  0  0
    4.0220   -0.9089   -0.2691 C   0  0  0  0  0  0  0  0  0  0  0  0
    5.4286   -0.8928   -0.2678 C   0  0  0  0  0  0  0  0  0  0  0  0
    6.1408    0.2544    0.1176 C   0  0  0  0  0  0  0  0  0  0  0  0
    7.6210    0.2595    0.1231 C   0  0  0  0  0  0  0  0  0  0  0  0
    8.2672   -0.7659   -0.2210 O   0  0  0  0  0  0  0  0  0  0  0  0
    8.3203    1.3977    0.5084 O   0  0  0  0  0  1  0  0  0  0  0  0
    5.4298    1.3982    0.5031 C   0  0  0  0  0  0  0  0  0  0  0  0
    4.0350    1.4031    0.4910 C   0  0  0  0  0  0  0  0  0  0  0  0
    3.3105    0.2663    0.0920 C   0  0  0  0  0  0  0  0  0  0  0  0
    1.8279    0.3484    0.0681 C   0  0  0  0  0  0  0  0  0  0  0  0
    1.1027   -0.3131   -0.8701 N   0  0  0  0  0  0  0  0  0  0  0  0
   -0.2252   -0.2151   -0.8991 N   0  0  0  0  0  0  0  0  0  0  0  0
   -0.8838    0.5477    0.0108 C   0  0  0  0  0  0  0  0  0  0  0  0
   -2.3597    0.6863   -0.0370 C   0  0  0  0  0  0  0  0  0  0  0  0
   -2.9069    1.9518    0.2056 C   0  0  0  0  0  0  0  0  0  0  0  0
   -4.2782    2.1622    0.1345 C   0  0  0  0  0  0  0  0  0  0  0  0
   -5.1491    1.1236   -0.2163 C   0  0  0  0  0  0  0  0  0  0  0  0
   -6.6040    1.4173   -0.2209 C   0  0  0  0  0  0  0  0  0  0  0  0
   -7.4450    0.5289    0.0786 O   0  0  0  0  0  0  0  0  0  0  0  0
   -7.0547    2.7024   -0.5005 O   0  0  0  0  0  1  0  0  0  0  0  0
   -4.6157   -0.1576   -0.5272 C   0  0  0  0  0  0  0  0  0  0  0  0
   -5.5173   -1.2515   -1.0620 C   0  0  0  0  0  0  0  0  0  0  0  0
   -3.2238   -0.4005   -0.3396 C   0  0  0  0  0  0  0  0  0  0  0  0
   -2.6708   -1.8070   -0.4485 C   0  0  0  0  0  0  0  0  0  0  0  0
   -0.1580    1.2324    0.9319 N   0  0  0  0  0  0  0  0  0  0  0  0
    1.1702    1.1341    0.9602 N   0  0  0  0  0  0  0  0  0  0  0  0
  1  2  1  0
  2  3  2  0
  3  4  1  0
  4  5  1  0
  5  6  2  0
  5  7  1  0
  4  8  2  0
  8  9  1  0
  9 10  2  0
 10 11  1  0
 11 12  2  0
 12 13  1  0
 13 14  2  0
 14 15  1  0
 15 16  2  0
 16 17  1  0
 17 18  2  0
 18 19  1  0
 19 20  2  0
 19 21  1  0
 18 22  1  0
 22 23  1  0
 22 24  2  0
 24 25  1  0
 14 26  1  0
 26 27  2  0
 10  2  1  0
 27 11  1  0
 24 15  1  0
M  CHG  2   7  -1  21  -1
M  END
>  <_Model>  (9) 
0

>  <_Energy>  (9) 
67.13084340684678

$$$$
Cc1cc(C(=O)[O-])ccc1-c1nnc(-c2ccc(C(=O)[O-])c(C)c2C)nn1
     RDKit          3D

 27 29  0  0  0  0  0  0  0  0999 V2000
   -3.4573    0.7877   -1.7302 C   0  0  0  0  0  0  0  0  0  0  0  0
   -4.0692    0.0950   -0.5394 C   0  0  0  0  0  0  0  0  0  0  0  0
   -5.4648   -0.0805   -0.5109 C   0  0  0  0  0  0  0  0  0  0  0  0
   -6.0980   -0.6809    0.5882 C   0  0  0  0  0  0  0  0  0  0  0  0
   -7.5684   -0.8505    0.6043 C   0  0  0  0  0  0  0  0  0  0  0  0
   -8.1408   -1.3869    1.5902 O   0  0  0  0  0  0  0  0  0  0  0  0
   -8.3398   -0.4202   -0.4693 O   0  0  0  0  0  1  0  0  0  0  0  0
   -5.3181   -1.1125    1.6700 C   0  0  0  0  0  0  0  0  0  0  0  0
   -3.9318   -0.9607    1.6491 C   0  0  0  0  0  0  0  0  0  0  0  0
   -3.2844   -0.3752    0.5471 C   0  0  0  0  0  0  0  0  0  0  0  0
   -1.8030   -0.2747    0.5721 C   0  0  0  0  0  0  0  0  0  0  0  0
   -1.1471   -0.1032    1.7495 N   0  0  0  0  0  0  0  0  0  0  0  0
    0.1828   -0.0352    1.7849 N   0  0  0  0  0  0  0  0  0  0  0  0
    0.9122   -0.1346    0.6438 C   0  0  0  0  0  0  0  0  0  0  0  0
    2.3939   -0.0910    0.6928 C   0  0  0  0  0  0  0  0  0  0  0  0
    3.0328   -0.7272    1.7637 C   0  0  0  0  0  0  0  0  0  0  0  0
    4.4188   -0.7621    1.8493 C   0  0  0  0  0  0  0  0  0  0  0  0
    5.2168   -0.1931    0.8495 C   0  0  0  0  0  0  0  0  0  0  0  0
    6.6883   -0.2281    1.0401 C   0  0  0  0  0  0  0  0  0  0  0  0
    7.4205    0.6979    0.6012 O   0  0  0  0  0  0  0  0  0  0  0  0
    7.2730   -1.2620    1.7627 O   0  0  0  0  0  1  0  0  0  0  0  0
    4.5954    0.4070   -0.2803 C   0  0  0  0  0  0  0  0  0  0  0  0
    5.4330    0.8865   -1.4483 C   0  0  0  0  0  0  0  0  0  0  0  0
    3.1770    0.5450   -0.3079 C   0  0  0  0  0  0  0  0  0  0  0  0
    2.5095    1.3734   -1.3868 C   0  0  0  0  0  0  0  0  0  0  0  0
    0.2589   -0.3347   -0.5296 N   0  0  0  0  0  0  0  0  0  0  0  0
   -1.0708   -0.4025   -0.5643 N   0  0  0  0  0  0  0  0  0  0  0  0
  1  2  1  0
  2  3  2  0
  3  4  1  0
  4  5  1  0
  5  6  2  0
  5  7  1  0
  4  8  2  0
  8  9  1  0
  9 10  2  0
 10 11  1  0
 11 12  2  0
 12 13  1  0
 13 14  2  0
 14 15  1  0
 15 16  2  0
 16 17  1  0
 17 18  2  0
 18 19  1  0
 19 20  2  0
 19 21  1  0
 18 22  1  0
 22 23  1  0
 22 24  2  0
 24 25  1  0
 14 26  1  0
 26 27  2  0
 10  2  1  0
 27 11  1  0
 24 15  1  0
M  CHG  2   7  -1  21  -1
M  END
>  <_Model>  (10) 
2

>  <_Energy>  (10) 
67.13340867569318

$$$$
Cc1cc(C(=O)[O-])ccc1-c1nnc(-c2ccc(C(=O)[O-])c(C)c2C)nn1
     RDKit          3D

 27 29  0  0  0  0  0  0  0  0999 V2000
    3.7018   -2.3114   -0.7280 C   0  0  0  0  0  0  0  0  0  0  0  0
    4.1847   -0.9487   -0.3014 C   0  0  0  0  0  0  0  0  0  0  0  0
    5.5700   -0.7382   -0.1762 C   0  0  0  0  0  0  0  0  0  0  0  0
    6.0837    0.5199    0.1776 C   0  0  0  0  0  0  0  0  0  0  0  0
    7.5434    0.7339    0.2995 C   0  0  0  0  0  0  0  0  0  0  0  0
    8.3498   -0.2112    0.0902 O   0  0  0  0  0  0  0  0  0  0  0  0
    8.0457    1.9826    0.6476 O   0  0  0  0  0  1  0  0  0  0  0  0
    5.1938    1.5763    0.4107 C   0  0  0  0  0  0  0  0  0  0  0  0
    3.8169    1.3789    0.3068 C   0  0  0  0  0  0  0  0  0  0  0  0
    3.2893    0.1204   -0.0313 C   0  0  0  0  0  0  0  0  0  0  0  0
    1.8131   -0.0311   -0.0906 C   0  0  0  0  0  0  0  0  0  0  0  0
    1.0320    1.0126   -0.4728 N   0  0  0  0  0  0  0  0  0  0  0  0
   -0.2945    0.8957   -0.5024 N   0  0  0  0  0  0  0  0  0  0  0  0
   -0.8963   -0.2648   -0.1353 C   0  0  0  0  0  0  0  0  0  0  0  0
   -2.3706   -0.4132   -0.2016 C   0  0  0  0  0  0  0  0  0  0  0  0
   -2.8856   -1.6284   -0.6683 C   0  0  0  0  0  0  0  0  0  0  0  0
   -4.2553   -1.8209   -0.7972 C   0  0  0  0  0  0  0  0  0  0  0  0
   -5.1583   -0.7937   -0.4978 C   0  0  0  0  0  0  0  0  0  0  0  0
   -6.6070   -1.0954   -0.6134 C   0  0  0  0  0  0  0  0  0  0  0  0
   -7.4458   -0.5459    0.1486 O   0  0  0  0  0  0  0  0  0  0  0  0
   -7.0510   -2.0399   -1.5320 O   0  0  0  0  0  1  0  0  0  0  0  0
   -4.6607    0.4711   -0.0792 C   0  0  0  0  0  0  0  0  0  0  0  0
   -5.6044    1.6434    0.0970 C   0  0  0  0  0  0  0  0  0  0  0  0
   -3.2652    0.6285    0.1644 C   0  0  0  0  0  0  0  0  0  0  0  0
   -2.7401    1.8894    0.8201 C   0  0  0  0  0  0  0  0  0  0  0  0
   -0.1164   -1.3095    0.2444 N   0  0  0  0  0  0  0  0  0  0  0  0
    1.2100   -1.1919    0.2738 N   0  0  0  0  0  0  0  0  0  0  0  0
  1  2  1  0
  2  3  2  0
  3  4  1  0
  4  5  1  0
  5  6  2  0
  5  7  1  0
  4  8  2  0
  8  9  1  0
  9 10  2  0
 10 11  1  0
 11 12  2  0
 12 13  1  0
 13 14  2  0
 14 15  1  0
 15 16  2  0
 16 17  1  0
 17 18  2  0
 18 19  1  0
 19 20  2  0
 19 21  1  0
 18 22  1  0
 22 23  1  0
 22 24  2  0
 24 25  1  0
 14 26  1  0
 26 27  2  0
 10  2  1  0
 27 11  1  0
 24 15  1  0
M  CHG  2   7  -1  21  -1
M  END
>  <_Model>  (11) 
4

>  <_Energy>  (11) 
67.18573167827242

$$$$
Cc1cc(C(=O)[O-])ccc1-c1nnc(-c2ccc(C(=O)[O-])c(C)c2C)nn1
     RDKit          3D

 27 29  0  0  0  0  0  0  0  0999 V2000
    3.8338   -0.3222    2.2738 C   0  0  0  0  0  0  0  0  0  0  0  0
    4.2339   -0.1455    0.8313 C   0  0  0  0  0  0  0  0  0  0  0  0
    5.6034   -0.1572    0.5101 C   0  0  0  0  0  0  0  0  0  0  0  0
    6.0410    0.0432   -0.8092 C   0  0  0  0  0  0  0  0  0  0  0  0
    7.4846    0.0367   -1.1364 C   0  0  0  0  0  0  0  0  0  0  0  0
    8.3455   -0.1516   -0.2360 O   0  0  0  0  0  0  0  0  0  0  0  0
    7.9115    0.2384   -2.4440 O   0  0  0  0  0  1  0  0  0  0  0  0
    5.0902    0.2547   -1.8158 C   0  0  0  0  0  0  0  0  0  0  0  0
    3.7281    0.2525   -1.5158 C   0  0  0  0  0  0  0  0  0  0  0  0
    3.2764    0.0375   -0.2019 C   0  0  0  0  0  0  0  0  0  0  0  0
    1.8119    0.0124    0.0437 C   0  0  0  0  0  0  0  0  0  0  0  0
    1.2704   -0.8038    0.9843 N   0  0  0  0  0  0  0  0  0  0  0  0
   -0.0468   -0.8405    1.1783 N   0  0  0  0  0  0  0  0  0  0  0  0
   -0.8793   -0.0739    0.4278 C   0  0  0  0  0  0  0  0  0  0  0  0
   -2.3419   -0.0914    0.6734 C   0  0  0  0  0  0  0  0  0  0  0  0
   -2.7818   -0.1712    2.0001 C   0  0  0  0  0  0  0  0  0  0  0  0
   -4.1367   -0.1485    2.3056 C   0  0  0  0  0  0  0  0  0  0  0  0
   -5.0998   -0.0096    1.2989 C   0  0  0  0  0  0  0  0  0  0  0  0
   -6.5276   -0.0447    1.7028 C   0  0  0  0  0  0  0  0  0  0  0  0
   -7.4057   -0.5231    0.9372 O   0  0  0  0  0  0  0  0  0  0  0  0
   -6.9060    0.3994    2.9648 O   0  0  0  0  0  1  0  0  0  0  0  0
   -4.6795    0.1344   -0.0521 C   0  0  0  0  0  0  0  0  0  0  0  0
   -5.6898    0.4449   -1.1378 C   0  0  0  0  0  0  0  0  0  0  0  0
   -3.2983   -0.0070   -0.3742 C   0  0  0  0  0  0  0  0  0  0  0  0
   -2.8534   -0.0804   -1.8207 C   0  0  0  0  0  0  0  0  0  0  0  0
   -0.3390    0.7446   -0.5112 N   0  0  0  0  0  0  0  0  0  0  0  0
    0.9783    0.7809   -0.7047 N   0  0  0  0  0  0  0  0  0  0  0  0
  1  2  1  0
  2  3  2  0
  3  4  1  0
  4  5  1  0
  5  6  2  0
  5  7  1  0
  4  8  2  0
  8  9  1  0
  9 10  2  0
 10 11  1  0
 11 12  2  0
 12 13  1  0
 13 14  2  0
 14 15  1  0
 15 16  2  0
 16 17  1  0
 17 18  2  0
 18 19  1  0
 19 20  2  0
 19 21  1  0
 18 22  1  0
 22 23  1  0
 22 24  2  0
 24 25  1  0
 14 26  1  0
 26 27  2  0
 10  2  1  0
 27 11  1  0
 24 15  1  0
M  CHG  2   7  -1  21  -1
M  END
>  <_Model>  (12) 
7

>  <_Energy>  (12) 
67.18573178028139

$$$$
Cc1cc(C(=O)[O-])ccc1-c1nnc(-c2ccc(C(=O)[O-])c(C)c2C)nn1
     RDKit          3D

 27 29  0  0  0  0  0  0  0  0999 V2000
    3.8277   -2.0749    0.7113 C   0  0  0  0  0  0  0  0  0  0  0  0
    4.2297   -0.6681    0.3488 C   0  0  0  0  0  0  0  0  0  0  0  0
    5.6008   -0.3612    0.2764 C   0  0  0  0  0  0  0  0  0  0  0  0
    6.0384    0.9397   -0.0159 C   0  0  0  0  0  0  0  0  0  0  0  0
    7.4852    1.2462   -0.0804 C   0  0  0  0  0  0  0  0  0  0  0  0
    7.8820    2.4134   -0.3402 O   0  0  0  0  0  0  0  0  0  0  0  0
    8.4279    0.2494    0.1446 O   0  0  0  0  0  1  0  0  0  0  0  0
    5.0859    1.9432   -0.2409 C   0  0  0  0  0  0  0  0  0  0  0  0
    3.7231    1.6508   -0.1891 C   0  0  0  0  0  0  0  0  0  0  0  0
    3.2723    0.3481    0.0872 C   0  0  0  0  0  0  0  0  0  0  0  0
    1.8087    0.0963    0.0927 C   0  0  0  0  0  0  0  0  0  0  0  0
    0.9472    1.0705    0.4857 N   0  0  0  0  0  0  0  0  0  0  0  0
   -0.3686    0.8642    0.4678 N   0  0  0  0  0  0  0  0  0  0  0  0
   -0.8788   -0.3194    0.0405 C   0  0  0  0  0  0  0  0  0  0  0  0
   -2.3408   -0.5684    0.0532 C   0  0  0  0  0  0  0  0  0  0  0  0
   -2.7860   -1.8319    0.4599 C   0  0  0  0  0  0  0  0  0  0  0  0
   -4.1427   -2.1201    0.5370 C   0  0  0  0  0  0  0  0  0  0  0  0
   -5.1040   -1.1451    0.2446 C   0  0  0  0  0  0  0  0  0  0  0  0
   -6.5316   -1.5470    0.3021 C   0  0  0  0  0  0  0  0  0  0  0  0
   -7.3824   -1.0267   -0.4671 O   0  0  0  0  0  0  0  0  0  0  0  0
   -6.9380   -2.5527    1.1717 O   0  0  0  0  0  1  0  0  0  0  0  0
   -4.6810    0.1649   -0.1127 C   0  0  0  0  0  0  0  0  0  0  0  0
   -5.6964    1.2772   -0.2783 C   0  0  0  0  0  0  0  0  0  0  0  0
   -3.2927    0.4241   -0.3049 C   0  0  0  0  0  0  0  0  0  0  0  0
   -2.8349    1.7409   -0.8983 C   0  0  0  0  0  0  0  0  0  0  0  0
   -0.0185   -1.2948   -0.3500 N   0  0  0  0  0  0  0  0  0  0  0  0
    1.2972   -1.0878   -0.3318 N   0  0  0  0  0  0  0  0  0  0  0  0
  1  2  1  0
  2  3  2  0
  3  4  1  0
  4  5  1  0
  5  6  2  0
  5  7  1  0
  4  8  2  0
  8  9  1  0
  9 10  2  0
 10 11  1  0
 11 12  2  0
 12 13  1  0
 13 14  2  0
 14 15  1  0
 15 16  2  0
 16 17  1  0
 17 18  2  0
 18 19  1  0
 19 20  2  0
 19 21  1  0
 18 22  1  0
 22 23  1  0
 22 24  2  0
 24 25  1  0
 14 26  1  0
 26 27  2  0
 10  2  1  0
 27 11  1  0
 24 15  1  0
M  CHG  2   7  -1  21  -1
M  END
>  <_Model>  (13) 
9

>  <_Energy>  (13) 
67.18832860736602

$$$$
Cc1cc(C(=O)[O-])ccc1-c1nnc(-c2ccc(C(=O)[O-])c(C)c2C)nn1
     RDKit          3D

 27 29  0  0  0  0  0  0  0  0999 V2000
    3.4157   -1.4450   -1.5704 C   0  0  0  0  0  0  0  0  0  0  0  0
    4.0607   -0.5265   -0.5642 C   0  0  0  0  0  0  0  0  0  0  0  0
    5.4649   -0.5056   -0.4801 C   0  0  0  0  0  0  0  0  0  0  0  0
    6.1256    0.3574    0.4076 C   0  0  0  0  0  0  0  0  0  0  0  0
    7.6042    0.3713    0.4772 C   0  0  0  0  0  0  0  0  0  0  0  0
    8.2011    1.1465    1.2711 O   0  0  0  0  0  0  0  0  0  0  0  0
    8.3562   -0.4717   -0.3331 O   0  0  0  0  0  1  0  0  0  0  0  0
    5.3650    1.2074    1.2224 C   0  0  0  0  0  0  0  0  0  0  0  0
    3.9716    1.1863    1.1625 C   0  0  0  0  0  0  0  0  0  0  0  0
    3.2979    0.3151    0.2889 C   0  0  0  0  0  0  0  0  0  0  0  0
    1.8129    0.3169    0.2986 C   0  0  0  0  0  0  0  0  0  0  0  0
    1.1303    1.4600    0.5692 N   0  0  0  0  0  0  0  0  0  0  0  0
   -0.2013    1.4665    0.6032 N   0  0  0  0  0  0  0  0  0  0  0  0
   -0.9059    0.3300    0.3667 C   0  0  0  0  0  0  0  0  0  0  0  0
   -2.3873    0.3358    0.4380 C   0  0  0  0  0  0  0  0  0  0  0  0
   -2.9922    1.1135    1.4326 C   0  0  0  0  0  0  0  0  0  0  0  0
   -4.3729    1.1314    1.5837 C   0  0  0  0  0  0  0  0  0  0  0  0
   -5.1971    0.3451    0.7684 C   0  0  0  0  0  0  0  0  0  0  0  0
   -6.6657    0.4550    0.9522 C   0  0  0  0  0  0  0  0  0  0  0  0
   -7.1447    0.7101    2.0893 O   0  0  0  0  0  0  0  0  0  0  0  0
   -7.5304    0.3367   -0.1297 O   0  0  0  0  0  1  0  0  0  0  0  0
   -4.6064   -0.4989   -0.2108 C   0  0  0  0  0  0  0  0  0  0  0  0
   -5.4612   -1.4732   -0.9948 C   0  0  0  0  0  0  0  0  0  0  0  0
   -3.2016   -0.4283   -0.4410 C   0  0  0  0  0  0  0  0  0  0  0  0
   -2.5821   -1.1516   -1.6195 C   0  0  0  0  0  0  0  0  0  0  0  0
   -0.2239   -0.8188    0.1245 N   0  0  0  0  0  0  0  0  0  0  0  0
    1.1076   -0.8246    0.0906 N   0  0  0  0  0  0  0  0  0  0  0  0
  1  2  1  0
  2  3  2  0
  3  4  1  0
  4  5  1  0
  5  6  2  0
  5  7  1  0
  4  8  2  0
  8  9  1  0
  9 10  2  0
 10 11  1  0
 11 12  2  0
 12 13  1  0
 13 14  2  0
 14 15  1  0
 15 16  2  0
 16 17  1  0
 17 18  2  0
 18 19  1  0
 19 20  2  0
 19 21  1  0
 18 22  1  0
 22 23  1  0
 22 24  2  0
 24 25  1  0
 14 26  1  0
 26 27  2  0
 10  2  1  0
 27 11  1  0
 24 15  1  0
M  CHG  2   7  -1  21  -1
M  END
>  <_Model>  (14) 
10

>  <_Energy>  (14) 
67.19987169278771

$$$$
Cc1cc(C(=O)[O-])ccc1-c1nnc(-c2ccc(C(=O)[O-])c(C)c2C)nn1
     RDKit          3D

 27 29  0  0  0  0  0  0  0  0999 V2000
    3.6154    0.3500    2.5116 C   0  0  0  0  0  0  0  0  0  0  0  0
    4.1491    0.1588    1.1149 C   0  0  0  0  0  0  0  0  0  0  0  0
    5.5427    0.1698    0.9233 C   0  0  0  0  0  0  0  0  0  0  0  0
    6.1023   -0.0436   -0.3469 C   0  0  0  0  0  0  0  0  0  0  0  0
    7.5702   -0.0378   -0.5374 C   0  0  0  0  0  0  0  0  0  0  0  0
    8.3427    0.1617    0.4377 O   0  0  0  0  0  0  0  0  0  0  0  0
    8.1180   -0.2524   -1.7971 O   0  0  0  0  0  1  0  0  0  0  0  0
    5.2502   -0.2676   -1.4360 C   0  0  0  0  0  0  0  0  0  0  0  0
    3.8659   -0.2649   -1.2649 C   0  0  0  0  0  0  0  0  0  0  0  0
    3.2929   -0.0368   -0.0015 C   0  0  0  0  0  0  0  0  0  0  0  0
    1.8118   -0.0120    0.1055 C   0  0  0  0  0  0  0  0  0  0  0  0
    1.1837    0.8130    0.9824 N   0  0  0  0  0  0  0  0  0  0  0  0
   -0.1459    0.8492    1.0517 N   0  0  0  0  0  0  0  0  0  0  0  0
   -0.9037    0.0732    0.2347 C   0  0  0  0  0  0  0  0  0  0  0  0
   -2.3829    0.0904    0.3420 C   0  0  0  0  0  0  0  0  0  0  0  0
   -2.9453    0.1836    1.6207 C   0  0  0  0  0  0  0  0  0  0  0  0
   -4.3228    0.1614    1.7979 C   0  0  0  0  0  0  0  0  0  0  0  0
   -5.1873    0.0100    0.7062 C   0  0  0  0  0  0  0  0  0  0  0  0
   -6.6482    0.0478    0.9655 C   0  0  0  0  0  0  0  0  0  0  0  0
   -7.1087   -0.3736    2.0599 O   0  0  0  0  0  0  0  0  0  0  0  0
   -7.5231    0.5982    0.0361 O   0  0  0  0  0  1  0  0  0  0  0  0
   -4.6422   -0.1459   -0.5970 C   0  0  0  0  0  0  0  0  0  0  0  0
   -5.5460   -0.4685   -1.7691 C   0  0  0  0  0  0  0  0  0  0  0  0
   -3.2368   -0.0068   -0.7897 C   0  0  0  0  0  0  0  0  0  0  0  0
   -2.6583    0.0492   -2.1890 C   0  0  0  0  0  0  0  0  0  0  0  0
   -0.2770   -0.7542   -0.6408 N   0  0  0  0  0  0  0  0  0  0  0  0
    1.0527   -0.7899   -0.7096 N   0  0  0  0  0  0  0  0  0  0  0  0
  1  2  1  0
  2  3  2  0
  3  4  1  0
  4  5  1  0
  5  6  2  0
  5  7  1  0
  4  8  2  0
  8  9  1  0
  9 10  2  0
 10 11  1  0
 11 12  2  0
 12 13  1  0
 13 14  2  0
 14 15  1  0
 15 16  2  0
 16 17  1  0
 17 18  2  0
 18 19  1  0
 19 20  2  0
 19 21  1  0
 18 22  1  0
 22 23  1  0
 22 24  2  0
 24 25  1  0
 14 26  1  0
 26 27  2  0
 10  2  1  0
 27 11  1  0
 24 15  1  0
M  CHG  2   7  -1  21  -1
M  END
>  <_Model>  (15) 
11

>  <_Energy>  (15) 
67.25220290709417

$$$$
Cc1cc(C(=O)[O-])ccc1-c1nnc(-c2ccc(C(=O)[O-])c(C)c2C)nn1
     RDKit          3D

 27 29  0  0  0  0  0  0  0  0999 V2000
   -3.7791    1.8428   -1.2500 C   0  0  0  0  0  0  0  0  0  0  0  0
   -4.2142    0.7369   -0.3228 C   0  0  0  0  0  0  0  0  0  0  0  0
   -5.5921    0.5249   -0.1338 C   0  0  0  0  0  0  0  0  0  0  0  0
   -6.0600   -0.4624    0.7484 C   0  0  0  0  0  0  0  0  0  0  0  0
   -7.5117   -0.6731    0.9465 C   0  0  0  0  0  0  0  0  0  0  0  0
   -8.3525    0.0291    0.3242 O   0  0  0  0  0  0  0  0  0  0  0  0
   -7.9686   -1.6505    1.8234 O   0  0  0  0  0  1  0  0  0  0  0  0
   -5.1316   -1.2465    1.4452 C   0  0  0  0  0  0  0  0  0  0  0  0
   -3.7624   -1.0594    1.2558 C   0  0  0  0  0  0  0  0  0  0  0  0
   -3.2812   -0.0851    0.3639 C   0  0  0  0  0  0  0  0  0  0  0  0
   -1.8124    0.0388    0.1821 C   0  0  0  0  0  0  0  0  0  0  0  0
   -0.9696   -0.2249    1.2144 N   0  0  0  0  0  0  0  0  0  0  0  0
    0.3502   -0.1439    1.0541 N   0  0  0  0  0  0  0  0  0  0  0  0
    0.8830    0.1882   -0.1500 C   0  0  0  0  0  0  0  0  0  0  0  0
    2.3502    0.3163   -0.3253 C   0  0  0  0  0  0  0  0  0  0  0  0
    2.8257    1.3739   -1.1097 C   0  0  0  0  0  0  0  0  0  0  0  0
    4.1889    1.5790   -1.2806 C   0  0  0  0  0  0  0  0  0  0  0  0
    5.1267    0.7552   -0.6450 C   0  0  0  0  0  0  0  0  0  0  0  0
    6.5651    1.0014   -0.9157 C   0  0  0  0  0  0  0  0  0  0  0  0
    6.9735    2.1681   -1.1591 O   0  0  0  0  0  0  0  0  0  0  0  0
    7.4719   -0.0510   -0.9625 O   0  0  0  0  0  1  0  0  0  0  0  0
    4.6727   -0.2900    0.2043 C   0  0  0  0  0  0  0  0  0  0  0  0
    5.6624   -1.0914    1.0246 C   0  0  0  0  0  0  0  0  0  0  0  0
    3.2776   -0.5703    0.2858 C   0  0  0  0  0  0  0  0  0  0  0  0
    2.7870   -1.8091    1.0071 C   0  0  0  0  0  0  0  0  0  0  0  0
    0.0414    0.4545   -1.1818 N   0  0  0  0  0  0  0  0  0  0  0  0
   -1.2783    0.3734   -1.0207 N   0  0  0  0  0  0  0  0  0  0  0  0
  1  2  1  0
  2  3  2  0
  3  4  1  0
  4  5  1  0
  5  6  2  0
  5  7  1  0
  4  8  2  0
  8  9  1  0
  9 10  2  0
 10 11  1  0
 11 12  2  0
 12 13  1  0
 13 14  2  0
 14 15  1  0
 15 16  2  0
 16 17  1  0
 17 18  2  0
 18 19  1  0
 19 20  2  0
 19 21  1  0
 18 22  1  0
 22 23  1  0
 22 24  2  0
 24 25  1  0
 14 26  1  0
 26 27  2  0
 10  2  1  0
 27 11  1  0
 24 15  1  0
M  CHG  2   7  -1  21  -1
M  END
>  <_Model>  (16) 
12

>  <_Energy>  (16) 
67.25220298359255

$$$$
Cc1cc(C(=O)[O-])ccc1-c1nnc(-c2ccc(C(=O)[O-])c(C)c2C)nn1
     RDKit          3D

 27 29  0  0  0  0  0  0  0  0999 V2000
    3.5679   -2.0218    1.6237 C   0  0  0  0  0  0  0  0  0  0  0  0
    4.1226   -0.8401    0.8700 C   0  0  0  0  0  0  0  0  0  0  0  0
    5.5144   -0.6348    0.8773 C   0  0  0  0  0  0  0  0  0  0  0  0
    6.0952    0.4232    0.1612 C   0  0  0  0  0  0  0  0  0  0  0  0
    7.5624    0.6196    0.1741 C   0  0  0  0  0  0  0  0  0  0  0  0
    8.0878    1.5668   -0.4694 O   0  0  0  0  0  0  0  0  0  0  0  0
    8.3824   -0.2390    0.8974 O   0  0  0  0  0  1  0  0  0  0  0  0
    5.2662    1.2865   -0.5684 C   0  0  0  0  0  0  0  0  0  0  0  0
    3.8833    1.1058   -0.5719 C   0  0  0  0  0  0  0  0  0  0  0  0
    3.2882    0.0593    0.1541 C   0  0  0  0  0  0  0  0  0  0  0  0
    1.8076   -0.0562    0.1369 C   0  0  0  0  0  0  0  0  0  0  0  0
    1.1038    0.3187   -0.9630 N   0  0  0  0  0  0  0  0  0  0  0  0
   -0.2261    0.2454   -0.9784 N   0  0  0  0  0  0  0  0  0  0  0  0
   -0.9089   -0.1906    0.1113 C   0  0  0  0  0  0  0  0  0  0  0  0
   -2.3870   -0.3097    0.0875 C   0  0  0  0  0  0  0  0  0  0  0  0
   -2.9634   -1.4289    0.7001 C   0  0  0  0  0  0  0  0  0  0  0  0
   -4.3382   -1.6261    0.6776 C   0  0  0  0  0  0  0  0  0  0  0  0
   -5.1838   -0.7297    0.0116 C   0  0  0  0  0  0  0  0  0  0  0  0
   -6.6461   -0.9759    0.0742 C   0  0  0  0  0  0  0  0  0  0  0  0
   -7.0878   -2.1534    0.1505 O   0  0  0  0  0  0  0  0  0  0  0  0
   -7.5464    0.0826    0.1078 O   0  0  0  0  0  1  0  0  0  0  0  0
   -4.6206    0.3837   -0.6690 C   0  0  0  0  0  0  0  0  0  0  0  0
   -5.4944    1.2763   -1.5261 C   0  0  0  0  0  0  0  0  0  0  0  0
   -3.2251    0.6466   -0.5469 C   0  0  0  0  0  0  0  0  0  0  0  0
   -2.6410    1.9399   -1.0778 C   0  0  0  0  0  0  0  0  0  0  0  0
   -0.2062   -0.5682    1.2102 N   0  0  0  0  0  0  0  0  0  0  0  0
    1.1236   -0.4946    1.2250 N   0  0  0  0  0  0  0  0  0  0  0  0
  1  2  1  0
  2  3  2  0
  3  4  1  0
  4  5  1  0
  5  6  2  0
  5  7  1  0
  4  8  2  0
  8  9  1  0
  9 10  2  0
 10 11  1  0
 11 12  2  0
 12 13  1  0
 13 14  2  0
 14 15  1  0
 15 16  2  0
 16 17  1  0
 17 18  2  0
 18 19  1  0
 19 20  2  0
 19 21  1  0
 18 22  1  0
 22 23  1  0
 22 24  2  0
 24 25  1  0
 14 26  1  0
 26 27  2  0
 10  2  1  0
 27 11  1  0
 24 15  1  0
M  CHG  2   7  -1  21  -1
M  END
>  <_Model>  (17) 
19

>  <_Energy>  (17) 
67.25479975986727

$$$$
