O=C([O-])C#CC=C(Cl)C#CC(=O)[O-]
     RDKit          3D

 13 12  0  0  0  0  0  0  0  0999 V2000
    4.8956    1.8122   -1.0415 O   0  0  0  0  0  0  0  0  0  0  0  0
    4.3267    1.0795   -0.1917 C   0  0  0  0  0  0  0  0  0  0  0  0
    5.0683    0.4861    0.8205 O   0  0  0  0  0  1  0  0  0  0  0  0
    2.9113    0.8569   -0.2685 C   0  0  0  0  0  0  0  0  0  0  0  0
    1.7221    0.6689   -0.3316 C   0  0  0  0  0  0  0  0  0  0  0  0
    0.3016    0.4443   -0.4070 C   0  0  0  0  0  0  0  0  0  0  0  0
   -0.3420   -0.3265    0.4751 C   0  0  0  0  0  0  0  0  0  0  0  0
    0.4945   -1.1290    1.7999 Cl  0  0  0  0  0  0  0  0  0  0  0  0
   -1.7625   -0.5188    0.3556 C   0  0  0  0  0  0  0  0  0  0  0  0
   -2.9531   -0.6804    0.2559 C   0  0  0  0  0  0  0  0  0  0  0  0
   -4.3701   -0.8724    0.1368 C   0  0  0  0  0  0  0  0  0  0  0  0
   -4.9787   -1.5970    0.9657 O   0  0  0  0  0  0  0  0  0  0  0  0
   -5.0693   -0.2585   -0.8931 O   0  0  0  0  0  1  0  0  0  0  0  0
  1  2  2  0
  2  3  1  0
  2  4  1  0
  4  5  3  0
  5  6  1  0
  6  7  2  3
  7  8  1  0
  7  9  1  0
  9 10  3  0
 10 11  1  0
 11 12  2  0
 11 13  1  0
M  CHG  2   3  -1  13  -1
M  END
>  <_Model>  (1) 
0

>  <_Energy>  (1) 
1.035110263342132

$$$$
O=C([O-])C#CC=C(Cl)C#CC(=O)[O-]
     RDKit          3D

 13 12  0  0  0  0  0  0  0  0999 V2000
    5.1450   -1.0620   -0.6083 O   0  0  0  0  0  0  0  0  0  0  0  0
    4.1938   -1.4931    0.0932 C   0  0  0  0  0  0  0  0  0  0  0  0
    4.3989   -2.5550    0.9632 O   0  0  0  0  0  1  0  0  0  0  0  0
    2.8969   -0.8873   -0.0059 C   0  0  0  0  0  0  0  0  0  0  0  0
    1.8065   -0.3795   -0.0878 C   0  0  0  0  0  0  0  0  0  0  0  0
    0.5041    0.2272   -0.1857 C   0  0  0  0  0  0  0  0  0  0  0  0
   -0.5310   -0.1937    0.5478 C   0  0  0  0  0  0  0  0  0  0  0  0
   -0.3855   -1.5232    1.6924 Cl  0  0  0  0  0  0  0  0  0  0  0  0
   -1.8119    0.4465    0.4125 C   0  0  0  0  0  0  0  0  0  0  0  0
   -2.8858    0.9827    0.2995 C   0  0  0  0  0  0  0  0  0  0  0  0
   -4.1640    1.6207    0.1653 C   0  0  0  0  0  0  0  0  0  0  0  0
   -4.3393    2.4985   -0.7186 O   0  0  0  0  0  0  0  0  0  0  0  0
   -5.2072    1.2693    1.0109 O   0  0  0  0  0  1  0  0  0  0  0  0
  1  2  2  0
  2  3  1  0
  2  4  1  0
  4  5  3  0
  5  6  1  0
  6  7  2  3
  7  8  1  0
  7  9  1  0
  9 10  3  0
 10 11  1  0
 11 12  2  0
 11 13  1  0
M  CHG  2   3  -1  13  -1
M  END
>  <_Model>  (2) 
1

>  <_Energy>  (2) 
1.0351305850436443

$$$$
O=C([O-])C#CC=C(Cl)C#CC(=O)[O-]
     RDKit          3D

 13 12  0  0  0  0  0  0  0  0999 V2000
    4.7476   -1.1618    1.5101 O   0  0  0  0  0  0  0  0  0  0  0  0
    3.8816   -1.9663    1.0796 C   0  0  0  0  0  0  0  0  0  0  0  0
    4.1931   -3.3117    0.9394 O   0  0  0  0  0  1  0  0  0  0  0  0
    2.5718   -1.4933    0.7335 C   0  0  0  0  0  0  0  0  0  0  0  0
    1.4717   -1.0948    0.4431 C   0  0  0  0  0  0  0  0  0  0  0  0
    0.1575   -0.6190    0.0961 C   0  0  0  0  0  0  0  0  0  0  0  0
   -0.1851    0.6674    0.2155 C   0  0  0  0  0  0  0  0  0  0  0  0
    0.9423    1.8834    0.8064 Cl  0  0  0  0  0  0  0  0  0  0  0  0
   -1.5114    1.0917   -0.1448 C   0  0  0  0  0  0  0  0  0  0  0  0
   -2.6229    1.4479   -0.4467 C   0  0  0  0  0  0  0  0  0  0  0  0
   -3.9460    1.8713   -0.8061 C   0  0  0  0  0  0  0  0  0  0  0  0
   -4.2714    3.0814   -0.6949 O   0  0  0  0  0  0  0  0  0  0  0  0
   -4.8670    0.9455   -1.2765 O   0  0  0  0  0  1  0  0  0  0  0  0
  1  2  2  0
  2  3  1  0
  2  4  1  0
  4  5  3  0
  5  6  1  0
  6  7  2  3
  7  8  1  0
  7  9  1  0
  9 10  3  0
 10 11  1  0
 11 12  2  0
 11 13  1  0
M  CHG  2   3  -1  13  -1
M  END
>  <_Model>  (3) 
3

>  <_Energy>  (3) 
1.0355402932061966

$$$$
O=C([O-])C#CC=C(Cl)C#CC(=O)[O-]
     RDKit          3D

 13 12  0  0  0  0  0  0  0  0999 V2000
   -4.8044    1.5953   -0.2133 O   0  0  0  0  0  0  0  0  0  0  0  0
   -4.1793    1.3267    0.8449 C   0  0  0  0  0  0  0  0  0  0  0  0
   -4.8050    1.4690    2.0757 O   0  0  0  0  0  1  0  0  0  0  0  0
   -2.8194    0.8733    0.7795 C   0  0  0  0  0  0  0  0  0  0  0  0
   -1.6769    0.4926    0.7234 C   0  0  0  0  0  0  0  0  0  0  0  0
   -0.3121    0.0378    0.6566 C   0  0  0  0  0  0  0  0  0  0  0  0
    0.3487   -0.0538   -0.5016 C   0  0  0  0  0  0  0  0  0  0  0  0
   -0.3960    0.3738   -2.0384 Cl  0  0  0  0  0  0  0  0  0  0  0  0
    1.7113   -0.5144   -0.5141 C   0  0  0  0  0  0  0  0  0  0  0  0
    2.8533   -0.9004   -0.5253 C   0  0  0  0  0  0  0  0  0  0  0  0
    4.2126   -1.3600   -0.5389 C   0  0  0  0  0  0  0  0  0  0  0  0
    4.6940   -1.9310    0.4734 O   0  0  0  0  0  0  0  0  0  0  0  0
    4.9964   -1.1747   -1.6694 O   0  0  0  0  0  1  0  0  0  0  0  0
  1  2  2  0
  2  3  1  0
  2  4  1  0
  4  5  3  0
  5  6  1  0
  6  7  2  3
  7  8  1  0
  7  9  1  0
  9 10  3  0
 10 11  1  0
 11 12  2  0
 11 13  1  0
M  CHG  2   3  -1  13  -1
M  END
>  <_Model>  (4) 
6

>  <_Energy>  (4) 
1.0358229599341862

$$$$
O=C([O-])C#CC=C(Cl)C#CC(=O)[O-]
     RDKit          3D

 13 12  0  0  0  0  0  0  0  0999 V2000
    3.6384    2.0913    1.1794 O   0  0  0  0  0  0  0  0  0  0  0  0
    2.4208    1.9123    0.9187 C   0  0  0  0  0  0  0  0  0  0  0  0
    1.5202    2.9595    1.0567 O   0  0  0  0  0  1  0  0  0  0  0  0
    1.9624    0.6259    0.4787 C   0  0  0  0  0  0  0  0  0  0  0  0
    1.5735   -0.4536    0.1087 C   0  0  0  0  0  0  0  0  0  0  0  0
    1.1028   -1.7432   -0.3343 C   0  0  0  0  0  0  0  0  0  0  0  0
   -0.1814   -1.9798   -0.6226 C   0  0  0  0  0  0  0  0  0  0  0  0
   -0.6669   -3.5787   -1.1549 Cl  0  0  0  0  0  0  0  0  0  0  0  0
   -1.1949   -0.9591   -0.5116 C   0  0  0  0  0  0  0  0  0  0  0  0
   -2.0387   -0.1033   -0.4174 C   0  0  0  0  0  0  0  0  0  0  0  0
   -3.0399    0.9181   -0.3041 C   0  0  0  0  0  0  0  0  0  0  0  0
   -4.2385    0.6584   -0.5841 O   0  0  0  0  0  0  0  0  0  0  0  0
   -2.6855    2.1932    0.1147 O   0  0  0  0  0  1  0  0  0  0  0  0
  1  2  2  0
  2  3  1  0
  2  4  1  0
  4  5  3  0
  5  6  1  0
  6  7  2  3
  7  8  1  0
  7  9  1  0
  9 10  3  0
 10 11  1  0
 11 12  2  0
 11 13  1  0
M  CHG  2   3  -1  13  -1
M  END
>  <_Model>  (5) 
14

>  <_Energy>  (5) 
1.1131553288856297

$$$$
O=C([O-])C#CC=C(Cl)C#CC(=O)[O-]
     RDKit          3D

 13 12  0  0  0  0  0  0  0  0999 V2000
    1.9331    2.1398    2.1336 O   0  0  0  0  0  0  0  0  0  0  0  0
    2.5515    1.0734    1.8828 C   0  0  0  0  0  0  0  0  0  0  0  0
    3.8438    0.8928    2.3561 O   0  0  0  0  0  1  0  0  0  0  0  0
    1.9209    0.0438    1.1076 C   0  0  0  0  0  0  0  0  0  0  0  0
    1.3886   -0.8195    0.4561 C   0  0  0  0  0  0  0  0  0  0  0  0
    0.7470   -1.8494   -0.3241 C   0  0  0  0  0  0  0  0  0  0  0  0
   -0.4918   -1.7169   -0.8103 C   0  0  0  0  0  0  0  0  0  0  0  0
   -1.1952   -3.0201   -1.7494 Cl  0  0  0  0  0  0  0  0  0  0  0  0
   -1.2812   -0.5297   -0.5896 C   0  0  0  0  0  0  0  0  0  0  0  0
   -1.9377    0.4640   -0.4029 C   0  0  0  0  0  0  0  0  0  0  0  0
   -2.7157    1.6484   -0.1785 C   0  0  0  0  0  0  0  0  0  0  0  0
   -3.8697    1.7459   -0.6698 O   0  0  0  0  0  0  0  0  0  0  0  0
   -2.1947    2.6869    0.5809 O   0  0  0  0  0  1  0  0  0  0  0  0
  1  2  2  0
  2  3  1  0
  2  4  1  0
  4  5  3  0
  5  6  1  0
  6  7  2  3
  7  8  1  0
  7  9  1  0
  9 10  3  0
 10 11  1  0
 11 12  2  0
 11 13  1  0
M  CHG  2   3  -1  13  -1
M  END
>  <_Model>  (6) 
15

>  <_Energy>  (6) 
1.117599445536781

$$$$
O=C([O-])C#CC=C(Cl)C#CC(=O)[O-]
     RDKit          3D

 13 12  0  0  0  0  0  0  0  0999 V2000
   -1.9699   -0.0151    3.0321 O   0  0  0  0  0  0  0  0  0  0  0  0
   -2.6010   -0.4763    2.0464 C   0  0  0  0  0  0  0  0  0  0  0  0
   -3.9120   -0.9056    2.2009 O   0  0  0  0  0  1  0  0  0  0  0  0
   -1.9657   -0.5585    0.7626 C   0  0  0  0  0  0  0  0  0  0  0  0
   -1.4293   -0.6264   -0.3149 C   0  0  0  0  0  0  0  0  0  0  0  0
   -0.7831   -0.7056   -1.6022 C   0  0  0  0  0  0  0  0  0  0  0  0
    0.4773   -0.3047   -1.8001 C   0  0  0  0  0  0  0  0  0  0  0  0
    1.1848   -0.4370   -3.3993 Cl  0  0  0  0  0  0  0  0  0  0  0  0
    1.2871    0.2386   -0.7370 C   0  0  0  0  0  0  0  0  0  0  0  0
    1.9607    0.6922    0.1540 C   0  0  0  0  0  0  0  0  0  0  0  0
    2.7600    1.2315    1.2165 C   0  0  0  0  0  0  0  0  0  0  0  0
    2.2785    1.3382    2.3739 O   0  0  0  0  0  0  0  0  0  0  0  0
    4.0643    1.6357    0.9674 O   0  0  0  0  0  1  0  0  0  0  0  0
  1  2  2  0
  2  3  1  0
  2  4  1  0
  4  5  3  0
  5  6  1  0
  6  7  2  3
  7  8  1  0
  7  9  1  0
  9 10  3  0
 10 11  1  0
 11 12  2  0
 11 13  1  0
M  CHG  2   3  -1  13  -1
M  END
>  <_Model>  (7) 
17

>  <_Energy>  (7) 
1.121708618405929

$$$$
O=C([O-])C#CC(Cl)=C(Cl)C#CC(=O)[O-]
     RDKit          3D

 14 13  0  0  0  0  0  0  0  0999 V2000
    4.0974   -3.2462   -1.1679 O   0  0  0  0  0  0  0  0  0  0  0  0
    3.8419   -2.2599   -0.4301 C   0  0  0  0  0  0  0  0  0  0  0  0
    4.8165   -1.7602    0.4227 O   0  0  0  0  0  1  0  0  0  0  0  0
    2.5432   -1.6513   -0.4697 C   0  0  0  0  0  0  0  0  0  0  0  0
    1.4523   -1.1388   -0.5020 C   0  0  0  0  0  0  0  0  0  0  0  0
    0.1487   -0.5269   -0.5410 C   0  0  0  0  0  0  0  0  0  0  0  0
   -1.0316   -1.2201   -1.6494 Cl  0  0  0  0  0  0  0  0  0  0  0  0
   -0.1487    0.5269    0.2366 C   0  0  0  0  0  0  0  0  0  0  0  0
    1.0316    1.2201    1.3449 Cl  0  0  0  0  0  0  0  0  0  0  0  0
   -1.4523    1.1388    0.1975 C   0  0  0  0  0  0  0  0  0  0  0  0
   -2.5432    1.6513    0.1653 C   0  0  0  0  0  0  0  0  0  0  0  0
   -3.8419    2.2599    0.1256 C   0  0  0  0  0  0  0  0  0  0  0  0
   -4.0973    3.2464    0.8633 O   0  0  0  0  0  0  0  0  0  0  0  0
   -4.8165    1.7600   -0.7270 O   0  0  0  0  0  1  0  0  0  0  0  0
  1  2  2  0
  2  3  1  0
  2  4  1  0
  4  5  3  0
  5  6  1  0
  6  7  1  0
  6  8  2  3
  8  9  1  0
  8 10  1  0
 10 11  3  0
 11 12  1  0
 12 13  2  0
 12 14  1  0
M  CHG  2   3  -1  14  -1
M  END
>  <_Model>  (8) 
0

>  <_Energy>  (8) 
2.384937940529906

$$$$
O=C([O-])C#CC(Cl)=C(Cl)C#CC(=O)[O-]
     RDKit          3D

 14 13  0  0  0  0  0  0  0  0999 V2000
    4.0974   -3.2462   -1.1679 O   0  0  0  0  0  0  0  0  0  0  0  0
    3.8419   -2.2599   -0.4301 C   0  0  0  0  0  0  0  0  0  0  0  0
    4.8165   -1.7602    0.4227 O   0  0  0  0  0  1  0  0  0  0  0  0
    2.5432   -1.6513   -0.4697 C   0  0  0  0  0  0  0  0  0  0  0  0
    1.4523   -1.1388   -0.5020 C   0  0  0  0  0  0  0  0  0  0  0  0
    0.1487   -0.5269   -0.5410 C   0  0  0  0  0  0  0  0  0  0  0  0
   -1.0316   -1.2201   -1.6494 Cl  0  0  0  0  0  0  0  0  0  0  0  0
   -0.1487    0.5269    0.2366 C   0  0  0  0  0  0  0  0  0  0  0  0
    1.0316    1.2201    1.3449 Cl  0  0  0  0  0  0  0  0  0  0  0  0
   -1.4523    1.1388    0.1975 C   0  0  0  0  0  0  0  0  0  0  0  0
   -2.5432    1.6513    0.1653 C   0  0  0  0  0  0  0  0  0  0  0  0
   -3.8419    2.2599    0.1256 C   0  0  0  0  0  0  0  0  0  0  0  0
   -4.0973    3.2464    0.8633 O   0  0  0  0  0  0  0  0  0  0  0  0
   -4.8165    1.7600   -0.7270 O   0  0  0  0  0  1  0  0  0  0  0  0
  1  2  2  0
  2  3  1  0
  2  4  1  0
  4  5  3  0
  5  6  1  0
  6  7  1  0
  6  8  2  3
  8  9  1  0
  8 10  1  0
 10 11  3  0
 11 12  1  0
 12 13  2  0
 12 14  1  0
M  CHG  2   3  -1  14  -1
M  END
>  <_Model>  (9) 
0

>  <_Energy>  (9) 
2.384937940529906

$$$$
O=C([O-])C#CC(Cl)=C(Cl)C#CC(=O)[O-]
     RDKit          3D

 14 13  0  0  0  0  0  0  0  0999 V2000
    5.0034   -0.7068   -0.4248 O   0  0  0  0  0  0  0  0  0  0  0  0
    4.2004   -0.3429   -1.3223 C   0  0  0  0  0  0  0  0  0  0  0  0
    4.6619   -0.0960   -2.6079 O   0  0  0  0  0  1  0  0  0  0  0  0
    2.8076   -0.1829   -1.0170 C   0  0  0  0  0  0  0  0  0  0  0  0
    1.6374   -0.0488   -0.7596 C   0  0  0  0  0  0  0  0  0  0  0  0
    0.2390    0.1117   -0.4529 C   0  0  0  0  0  0  0  0  0  0  0  0
   -0.8180    0.6240   -1.7653 Cl  0  0  0  0  0  0  0  0  0  0  0  0
   -0.2333   -0.1206    0.7827 C   0  0  0  0  0  0  0  0  0  0  0  0
    0.8238   -0.6328    2.0951 Cl  0  0  0  0  0  0  0  0  0  0  0  0
   -1.6316    0.0399    1.0894 C   0  0  0  0  0  0  0  0  0  0  0  0
   -2.8019    0.1741    1.3468 C   0  0  0  0  0  0  0  0  0  0  0  0
   -4.1948    0.3343    1.6512 C   0  0  0  0  0  0  0  0  0  0  0  0
   -4.6141    0.1109    2.8160 O   0  0  0  0  0  0  0  0  0  0  0  0
   -5.0798    0.7358    0.6601 O   0  0  0  0  0  1  0  0  0  0  0  0
  1  2  2  0
  2  3  1  0
  2  4  1  0
  4  5  3  0
  5  6  1  0
  6  7  1  0
  6  8  2  3
  8  9  1  0
  8 10  1  0
 10 11  3  0
 11 12  1  0
 12 13  2  0
 12 14  1  0
M  CHG  2   3  -1  14  -1
M  END
>  <_Model>  (10) 
2

>  <_Energy>  (10) 
2.385368594070447

$$$$
O=C([O-])C#CC(Cl)=C(Cl)C#CC(=O)[O-]
     RDKit          3D

 14 13  0  0  0  0  0  0  0  0999 V2000
    5.0034   -0.7068   -0.4248 O   0  0  0  0  0  0  0  0  0  0  0  0
    4.2004   -0.3429   -1.3223 C   0  0  0  0  0  0  0  0  0  0  0  0
    4.6619   -0.0960   -2.6079 O   0  0  0  0  0  1  0  0  0  0  0  0
    2.8076   -0.1829   -1.0170 C   0  0  0  0  0  0  0  0  0  0  0  0
    1.6374   -0.0488   -0.7596 C   0  0  0  0  0  0  0  0  0  0  0  0
    0.2390    0.1117   -0.4529 C   0  0  0  0  0  0  0  0  0  0  0  0
   -0.8180    0.6240   -1.7653 Cl  0  0  0  0  0  0  0  0  0  0  0  0
   -0.2333   -0.1206    0.7827 C   0  0  0  0  0  0  0  0  0  0  0  0
    0.8238   -0.6328    2.0951 Cl  0  0  0  0  0  0  0  0  0  0  0  0
   -1.6316    0.0399    1.0894 C   0  0  0  0  0  0  0  0  0  0  0  0
   -2.8019    0.1741    1.3468 C   0  0  0  0  0  0  0  0  0  0  0  0
   -4.1948    0.3343    1.6512 C   0  0  0  0  0  0  0  0  0  0  0  0
   -4.6141    0.1109    2.8160 O   0  0  0  0  0  0  0  0  0  0  0  0
   -5.0798    0.7358    0.6601 O   0  0  0  0  0  1  0  0  0  0  0  0
  1  2  2  0
  2  3  1  0
  2  4  1  0
  4  5  3  0
  5  6  1  0
  6  7  1  0
  6  8  2  3
  8  9  1  0
  8 10  1  0
 10 11  3  0
 11 12  1  0
 12 13  2  0
 12 14  1  0
M  CHG  2   3  -1  14  -1
M  END
>  <_Model>  (11) 
2

>  <_Energy>  (11) 
2.385368594070447

$$$$
O=C([O-])C#CC(Cl)=C(Cl)C#CC(=O)[O-]
     RDKit          3D

 14 13  0  0  0  0  0  0  0  0999 V2000
    4.8188   -0.4098   -2.1971 O   0  0  0  0  0  0  0  0  0  0  0  0
    3.7947   -1.1213   -2.0306 C   0  0  0  0  0  0  0  0  0  0  0  0
    3.7643   -2.4193   -2.5214 O   0  0  0  0  0  1  0  0  0  0  0  0
    2.6582   -0.5914   -1.3335 C   0  0  0  0  0  0  0  0  0  0  0  0
    1.7023   -0.1475   -0.7478 C   0  0  0  0  0  0  0  0  0  0  0  0
    0.5606    0.3836   -0.0480 C   0  0  0  0  0  0  0  0  0  0  0  0
    0.6795    2.0377    0.5452 Cl  0  0  0  0  0  0  0  0  0  0  0  0
   -0.5448   -0.3552    0.1413 C   0  0  0  0  0  0  0  0  0  0  0  0
   -0.6637   -2.0093   -0.4519 Cl  0  0  0  0  0  0  0  0  0  0  0  0
   -1.6865    0.1758    0.8411 C   0  0  0  0  0  0  0  0  0  0  0  0
   -2.6424    0.6197    1.4267 C   0  0  0  0  0  0  0  0  0  0  0  0
   -3.7794    1.1489    2.1237 C   0  0  0  0  0  0  0  0  0  0  0  0
   -3.7528    2.3251    2.5692 O   0  0  0  0  0  0  0  0  0  0  0  0
   -4.9088    0.3629    2.3066 O   0  0  0  0  0  1  0  0  0  0  0  0
  1  2  2  0
  2  3  1  0
  2  4  1  0
  4  5  3  0
  5  6  1  0
  6  7  1  0
  6  8  2  3
  8  9  1  0
  8 10  1  0
 10 11  3  0
 11 12  1  0
 12 13  2  0
 12 14  1  0
M  CHG  2   3  -1  14  -1
M  END
>  <_Model>  (12) 
4

>  <_Energy>  (12) 
2.385368637276107

$$$$
O=C([O-])C#CC(Cl)=C(Cl)C#CC(=O)[O-]
     RDKit          3D

 14 13  0  0  0  0  0  0  0  0999 V2000
    4.8188   -0.4098   -2.1971 O   0  0  0  0  0  0  0  0  0  0  0  0
    3.7947   -1.1213   -2.0306 C   0  0  0  0  0  0  0  0  0  0  0  0
    3.7643   -2.4193   -2.5214 O   0  0  0  0  0  1  0  0  0  0  0  0
    2.6582   -0.5914   -1.3335 C   0  0  0  0  0  0  0  0  0  0  0  0
    1.7023   -0.1475   -0.7478 C   0  0  0  0  0  0  0  0  0  0  0  0
    0.5606    0.3836   -0.0480 C   0  0  0  0  0  0  0  0  0  0  0  0
    0.6795    2.0377    0.5452 Cl  0  0  0  0  0  0  0  0  0  0  0  0
   -0.5448   -0.3552    0.1413 C   0  0  0  0  0  0  0  0  0  0  0  0
   -0.6637   -2.0093   -0.4519 Cl  0  0  0  0  0  0  0  0  0  0  0  0
   -1.6865    0.1758    0.8411 C   0  0  0  0  0  0  0  0  0  0  0  0
   -2.6424    0.6197    1.4267 C   0  0  0  0  0  0  0  0  0  0  0  0
   -3.7794    1.1489    2.1237 C   0  0  0  0  0  0  0  0  0  0  0  0
   -3.7528    2.3251    2.5692 O   0  0  0  0  0  0  0  0  0  0  0  0
   -4.9088    0.3629    2.3066 O   0  0  0  0  0  1  0  0  0  0  0  0
  1  2  2  0
  2  3  1  0
  2  4  1  0
  4  5  3  0
  5  6  1  0
  6  7  1  0
  6  8  2  3
  8  9  1  0
  8 10  1  0
 10 11  3  0
 11 12  1  0
 12 13  2  0
 12 14  1  0
M  CHG  2   3  -1  14  -1
M  END
>  <_Model>  (13) 
4

>  <_Energy>  (13) 
2.385368637276107

$$$$
O=C([O-])C#CC(Cl)=C(Cl)C#CC(=O)[O-]
     RDKit          3D

 14 13  0  0  0  0  0  0  0  0999 V2000
    4.5813   -0.3342    2.0241 O   0  0  0  0  0  0  0  0  0  0  0  0
    4.2303   -0.9015    0.9575 C   0  0  0  0  0  0  0  0  0  0  0  0
    5.1306   -1.7030    0.2691 O   0  0  0  0  0  1  0  0  0  0  0  0
    2.8996   -0.7201    0.4525 C   0  0  0  0  0  0  0  0  0  0  0  0
    1.7813   -0.5672    0.0288 C   0  0  0  0  0  0  0  0  0  0  0  0
    0.4452   -0.3850   -0.4780 C   0  0  0  0  0  0  0  0  0  0  0  0
    0.0341   -1.2136   -1.9769 Cl  0  0  0  0  0  0  0  0  0  0  0  0
   -0.4452    0.3850    0.1687 C   0  0  0  0  0  0  0  0  0  0  0  0
   -0.0341    1.2136    1.6675 Cl  0  0  0  0  0  0  0  0  0  0  0  0
   -1.7813    0.5672   -0.3382 C   0  0  0  0  0  0  0  0  0  0  0  0
   -2.8996    0.7201   -0.7618 C   0  0  0  0  0  0  0  0  0  0  0  0
   -4.2303    0.9015   -1.2668 C   0  0  0  0  0  0  0  0  0  0  0  0
   -4.5814    0.3339   -2.3332 O   0  0  0  0  0  0  0  0  0  0  0  0
   -5.1305    1.7033   -0.5786 O   0  0  0  0  0  1  0  0  0  0  0  0
  1  2  2  0
  2  3  1  0
  2  4  1  0
  4  5  3  0
  5  6  1  0
  6  7  1  0
  6  8  2  3
  8  9  1  0
  8 10  1  0
 10 11  3  0
 11 12  1  0
 12 13  2  0
 12 14  1  0
M  CHG  2   3  -1  14  -1
M  END
>  <_Model>  (14) 
6

>  <_Energy>  (14) 
2.3857993737080028

$$$$
O=C([O-])C#CC(Cl)=C(Cl)C#CC(=O)[O-]
     RDKit          3D

 14 13  0  0  0  0  0  0  0  0999 V2000
    4.5813   -0.3342    2.0241 O   0  0  0  0  0  0  0  0  0  0  0  0
    4.2303   -0.9015    0.9575 C   0  0  0  0  0  0  0  0  0  0  0  0
    5.1306   -1.7030    0.2691 O   0  0  0  0  0  1  0  0  0  0  0  0
    2.8996   -0.7201    0.4525 C   0  0  0  0  0  0  0  0  0  0  0  0
    1.7813   -0.5672    0.0288 C   0  0  0  0  0  0  0  0  0  0  0  0
    0.4452   -0.3850   -0.4780 C   0  0  0  0  0  0  0  0  0  0  0  0
    0.0341   -1.2136   -1.9769 Cl  0  0  0  0  0  0  0  0  0  0  0  0
   -0.4452    0.3850    0.1687 C   0  0  0  0  0  0  0  0  0  0  0  0
   -0.0341    1.2136    1.6675 Cl  0  0  0  0  0  0  0  0  0  0  0  0
   -1.7813    0.5672   -0.3382 C   0  0  0  0  0  0  0  0  0  0  0  0
   -2.8996    0.7201   -0.7618 C   0  0  0  0  0  0  0  0  0  0  0  0
   -4.2303    0.9015   -1.2668 C   0  0  0  0  0  0  0  0  0  0  0  0
   -4.5814    0.3339   -2.3332 O   0  0  0  0  0  0  0  0  0  0  0  0
   -5.1305    1.7033   -0.5786 O   0  0  0  0  0  1  0  0  0  0  0  0
  1  2  2  0
  2  3  1  0
  2  4  1  0
  4  5  3  0
  5  6  1  0
  6  7  1  0
  6  8  2  3
  8  9  1  0
  8 10  1  0
 10 11  3  0
 11 12  1  0
 12 13  2  0
 12 14  1  0
M  CHG  2   3  -1  14  -1
M  END
>  <_Model>  (15) 
6

>  <_Energy>  (15) 
2.3857993737080028

$$$$
O=C([O-])C#CC(Cl)=C(Cl)C#CC(=O)[O-]
     RDKit          3D

 14 13  0  0  0  0  0  0  0  0999 V2000
    1.1269    4.0582   -1.0626 O   0  0  0  0  0  0  0  0  0  0  0  0
    0.6246    3.1268   -0.3823 C   0  0  0  0  0  0  0  0  0  0  0  0
   -0.0164    3.4101    0.8158 O   0  0  0  0  0  1  0  0  0  0  0  0
    0.7141    1.7715   -0.8443 C   0  0  0  0  0  0  0  0  0  0  0  0
    0.7874    0.6314   -1.2294 C   0  0  0  0  0  0  0  0  0  0  0  0
    0.8724   -0.7352   -1.6859 C   0  0  0  0  0  0  0  0  0  0  0  0
    1.6984   -1.0192   -3.2121 Cl  0  0  0  0  0  0  0  0  0  0  0  0
    0.3448   -1.7498   -0.9790 C   0  0  0  0  0  0  0  0  0  0  0  0
    0.4549   -3.4108   -1.5459 Cl  0  0  0  0  0  0  0  0  0  0  0  0
   -0.3350   -1.5273    0.2746 C   0  0  0  0  0  0  0  0  0  0  0  0
   -0.9021   -1.3370    1.3213 C   0  0  0  0  0  0  0  0  0  0  0  0
   -1.5763   -1.1069    2.5667 C   0  0  0  0  0  0  0  0  0  0  0  0
   -1.6829    0.0628    3.0174 O   0  0  0  0  0  0  0  0  0  0  0  0
   -2.1108   -2.1747    3.2742 O   0  0  0  0  0  1  0  0  0  0  0  0
  1  2  2  0
  2  3  1  0
  2  4  1  0
  4  5  3  0
  5  6  1  0
  6  7  1  0
  6  8  2  3
  8  9  1  0
  8 10  1  0
 10 11  3  0
 11 12  1  0
 12 13  2  0
 12 14  1  0
M  CHG  2   3  -1  14  -1
M  END
>  <_Model>  (16) 
11

>  <_Energy>  (16) 
2.610929803031784

$$$$
O=C([O-])C#CC(Cl)=C(Cl)C#CC(=O)[O-]
     RDKit          3D

 14 13  0  0  0  0  0  0  0  0999 V2000
    1.1269    4.0582   -1.0626 O   0  0  0  0  0  0  0  0  0  0  0  0
    0.6246    3.1268   -0.3823 C   0  0  0  0  0  0  0  0  0  0  0  0
   -0.0164    3.4101    0.8158 O   0  0  0  0  0  1  0  0  0  0  0  0
    0.7141    1.7715   -0.8443 C   0  0  0  0  0  0  0  0  0  0  0  0
    0.7874    0.6314   -1.2294 C   0  0  0  0  0  0  0  0  0  0  0  0
    0.8724   -0.7352   -1.6859 C   0  0  0  0  0  0  0  0  0  0  0  0
    1.6984   -1.0192   -3.2121 Cl  0  0  0  0  0  0  0  0  0  0  0  0
    0.3448   -1.7498   -0.9790 C   0  0  0  0  0  0  0  0  0  0  0  0
    0.4549   -3.4108   -1.5459 Cl  0  0  0  0  0  0  0  0  0  0  0  0
   -0.3350   -1.5273    0.2746 C   0  0  0  0  0  0  0  0  0  0  0  0
   -0.9021   -1.3370    1.3213 C   0  0  0  0  0  0  0  0  0  0  0  0
   -1.5763   -1.1069    2.5667 C   0  0  0  0  0  0  0  0  0  0  0  0
   -1.6829    0.0628    3.0174 O   0  0  0  0  0  0  0  0  0  0  0  0
   -2.1108   -2.1747    3.2742 O   0  0  0  0  0  1  0  0  0  0  0  0
  1  2  2  0
  2  3  1  0
  2  4  1  0
  4  5  3  0
  5  6  1  0
  6  7  1  0
  6  8  2  3
  8  9  1  0
  8 10  1  0
 10 11  3  0
 11 12  1  0
 12 13  2  0
 12 14  1  0
M  CHG  2   3  -1  14  -1
M  END
>  <_Model>  (17) 
11

>  <_Energy>  (17) 
2.610929803031784

$$$$
O=C([O-])C#CC(Cl)=C(Cl)C#CC(=O)[O-]
     RDKit          3D

 14 13  0  0  0  0  0  0  0  0999 V2000
    4.1189    0.8917   -1.0175 O   0  0  0  0  0  0  0  0  0  0  0  0
    2.8807    1.1002   -0.9360 C   0  0  0  0  0  0  0  0  0  0  0  0
    2.3023    2.1360   -1.6566 O   0  0  0  0  0  1  0  0  0  0  0  0
    2.0658    0.2679   -0.0977 C   0  0  0  0  0  0  0  0  0  0  0  0
    1.3777   -0.4297    0.6051 C   0  0  0  0  0  0  0  0  0  0  0  0
    0.5489   -1.2630    1.4437 C   0  0  0  0  0  0  0  0  0  0  0  0
    1.3633   -2.2238    2.6711 Cl  0  0  0  0  0  0  0  0  0  0  0  0
   -0.7874   -1.3056    1.2972 C   0  0  0  0  0  0  0  0  0  0  0  0
   -1.7866   -2.3254    2.3249 Cl  0  0  0  0  0  0  0  0  0  0  0  0
   -1.4655   -0.5196    0.2944 C   0  0  0  0  0  0  0  0  0  0  0  0
   -2.0277    0.1393   -0.5444 C   0  0  0  0  0  0  0  0  0  0  0  0
   -2.6925    0.9258   -1.5436 C   0  0  0  0  0  0  0  0  0  0  0  0
   -3.9490    0.9960   -1.5560 O   0  0  0  0  0  0  0  0  0  0  0  0
   -1.9488    1.6103   -2.4959 O   0  0  0  0  0  1  0  0  0  0  0  0
  1  2  2  0
  2  3  1  0
  2  4  1  0
  4  5  3  0
  5  6  1  0
  6  7  1  0
  6  8  2  3
  8  9  1  0
  8 10  1  0
 10 11  3  0
 11 12  1  0
 12 13  2  0
 12 14  1  0
M  CHG  2   3  -1  14  -1
M  END
>  <_Model>  (18) 
12

>  <_Energy>  (18) 
2.6139441093668943

$$$$
O=C([O-])C#CC(Cl)=C(Cl)C#CC(=O)[O-]
     RDKit          3D

 14 13  0  0  0  0  0  0  0  0999 V2000
    4.1189    0.8917   -1.0175 O   0  0  0  0  0  0  0  0  0  0  0  0
    2.8807    1.1002   -0.9360 C   0  0  0  0  0  0  0  0  0  0  0  0
    2.3023    2.1360   -1.6566 O   0  0  0  0  0  1  0  0  0  0  0  0
    2.0658    0.2679   -0.0977 C   0  0  0  0  0  0  0  0  0  0  0  0
    1.3777   -0.4297    0.6051 C   0  0  0  0  0  0  0  0  0  0  0  0
    0.5489   -1.2630    1.4437 C   0  0  0  0  0  0  0  0  0  0  0  0
    1.3633   -2.2238    2.6711 Cl  0  0  0  0  0  0  0  0  0  0  0  0
   -0.7874   -1.3056    1.2972 C   0  0  0  0  0  0  0  0  0  0  0  0
   -1.7866   -2.3254    2.3249 Cl  0  0  0  0  0  0  0  0  0  0  0  0
   -1.4655   -0.5196    0.2944 C   0  0  0  0  0  0  0  0  0  0  0  0
   -2.0277    0.1393   -0.5444 C   0  0  0  0  0  0  0  0  0  0  0  0
   -2.6925    0.9258   -1.5436 C   0  0  0  0  0  0  0  0  0  0  0  0
   -3.9490    0.9960   -1.5560 O   0  0  0  0  0  0  0  0  0  0  0  0
   -1.9488    1.6103   -2.4959 O   0  0  0  0  0  1  0  0  0  0  0  0
  1  2  2  0
  2  3  1  0
  2  4  1  0
  4  5  3  0
  5  6  1  0
  6  7  1  0
  6  8  2  3
  8  9  1  0
  8 10  1  0
 10 11  3  0
 11 12  1  0
 12 13  2  0
 12 14  1  0
M  CHG  2   3  -1  14  -1
M  END
>  <_Model>  (19) 
12

>  <_Energy>  (19) 
2.6139441093668943

$$$$
O=C([O-])C#CC(Cl)=C(Cl)C#CC(=O)[O-]
     RDKit          3D

 14 13  0  0  0  0  0  0  0  0999 V2000
    2.3358    2.5082    0.3985 O   0  0  0  0  0  0  0  0  0  0  0  0
    2.8788    1.3764    0.3159 C   0  0  0  0  0  0  0  0  0  0  0  0
    4.2601    1.2623    0.3903 O   0  0  0  0  0  1  0  0  0  0  0  0
    2.0702    0.2037    0.1448 C   0  0  0  0  0  0  0  0  0  0  0  0
    1.3883   -0.7801    0.0010 C   0  0  0  0  0  0  0  0  0  0  0  0
    0.5675   -1.9547   -0.1710 C   0  0  0  0  0  0  0  0  0  0  0  0
    1.3968   -3.5017   -0.2785 Cl  0  0  0  0  0  0  0  0  0  0  0  0
   -0.7724   -1.8751   -0.2464 C   0  0  0  0  0  0  0  0  0  0  0  0
   -1.7614   -3.3139   -0.4561 Cl  0  0  0  0  0  0  0  0  0  0  0  0
   -1.4627   -0.6105   -0.1593 C   0  0  0  0  0  0  0  0  0  0  0  0
   -2.0353    0.4478   -0.0861 C   0  0  0  0  0  0  0  0  0  0  0  0
   -2.7138    1.7090    0.0013 C   0  0  0  0  0  0  0  0  0  0  0  0
   -2.0535    2.7692    0.1516 O   0  0  0  0  0  0  0  0  0  0  0  0
   -4.0985    1.7593   -0.0798 O   0  0  0  0  0  1  0  0  0  0  0  0
  1  2  2  0
  2  3  1  0
  2  4  1  0
  4  5  3  0
  5  6  1  0
  6  7  1  0
  6  8  2  3
  8  9  1  0
  8 10  1  0
 10 11  3  0
 11 12  1  0
 12 13  2  0
 12 14  1  0
M  CHG  2   3  -1  14  -1
M  END
>  <_Model>  (20) 
13

>  <_Energy>  (20) 
2.6155891742644353

$$$$
O=C([O-])C#CC(Cl)=C(Cl)C#CC(=O)[O-]
     RDKit          3D

 14 13  0  0  0  0  0  0  0  0999 V2000
    2.3358    2.5082    0.3985 O   0  0  0  0  0  0  0  0  0  0  0  0
    2.8788    1.3764    0.3159 C   0  0  0  0  0  0  0  0  0  0  0  0
    4.2601    1.2623    0.3903 O   0  0  0  0  0  1  0  0  0  0  0  0
    2.0702    0.2037    0.1448 C   0  0  0  0  0  0  0  0  0  0  0  0
    1.3883   -0.7801    0.0010 C   0  0  0  0  0  0  0  0  0  0  0  0
    0.5675   -1.9547   -0.1710 C   0  0  0  0  0  0  0  0  0  0  0  0
    1.3968   -3.5017   -0.2785 Cl  0  0  0  0  0  0  0  0  0  0  0  0
   -0.7724   -1.8751   -0.2464 C   0  0  0  0  0  0  0  0  0  0  0  0
   -1.7614   -3.3139   -0.4561 Cl  0  0  0  0  0  0  0  0  0  0  0  0
   -1.4627   -0.6105   -0.1593 C   0  0  0  0  0  0  0  0  0  0  0  0
   -2.0353    0.4478   -0.0861 C   0  0  0  0  0  0  0  0  0  0  0  0
   -2.7138    1.7090    0.0013 C   0  0  0  0  0  0  0  0  0  0  0  0
   -2.0535    2.7692    0.1516 O   0  0  0  0  0  0  0  0  0  0  0  0
   -4.0985    1.7593   -0.0798 O   0  0  0  0  0  1  0  0  0  0  0  0
  1  2  2  0
  2  3  1  0
  2  4  1  0
  4  5  3  0
  5  6  1  0
  6  7  1  0
  6  8  2  3
  8  9  1  0
  8 10  1  0
 10 11  3  0
 11 12  1  0
 12 13  2  0
 12 14  1  0
M  CHG  2   3  -1  14  -1
M  END
>  <_Model>  (21) 
13

>  <_Energy>  (21) 
2.6155891742644353

$$$$
